

        *** GPGPU-Sim Simulator Version 3.2.2  [build 0] ***


GPGPU-Sim PTX: simulation mode 0 (can change with PTX_SIM_MODE_FUNC environment variable:
               1=functional simulation only, 0=detailed performance simulator)
GPGPU-Sim: Configuration options:

-network_mode                           1 # Interconnection network mode
-inter_config_file   config_fermi_islip.icnt # Interconnection network config file
-gpgpu_ptx_use_cuobjdump                    1 # Use cuobjdump to extract ptx and sass from binaries
-gpgpu_experimental_lib_support                    0 # Try to extract code from cuda libraries [Broken because of unknown cudaGetExportTable]
-gpgpu_ptx_convert_to_ptxplus                    0 # Convert SASS (native ISA) to ptxplus and run ptxplus
-gpgpu_ptx_force_max_capability                   20 # Force maximum compute capability
-gpgpu_ptx_inst_debug_to_file                    0 # Dump executed instructions' debug information to file
-gpgpu_ptx_inst_debug_file       inst_debug.txt # Executed instructions' debug output file
-gpgpu_ptx_inst_debug_thread_uid                    1 # Thread UID for executed instructions' debug output
-gpgpu_simd_model                       1 # 1 = post-dominator
-gpgpu_shader_core_pipeline              1536:32 # shader core pipeline config, i.e., {<nthread>:<warpsize>}
-gpgpu_tex_cache:l1  4:128:24,L:R:m:N:L,F:128:4,128:2 # per-shader L1 texture cache  (READ-ONLY) config  {<nsets>:<bsize>:<assoc>,<rep>:<wr>:<alloc>:<wr_alloc>,<mshr>:<N>:<merge>,<mq>:<rf>}
-gpgpu_const_cache:l1 64:64:2,L:R:f:N:L,A:2:32,4 # per-shader L1 constant memory cache  (READ-ONLY) config  {<nsets>:<bsize>:<assoc>,<rep>:<wr>:<alloc>:<wr_alloc>,<mshr>:<N>:<merge>,<mq>} 
-gpgpu_cache:il1     4:128:4,L:R:f:N:L,A:2:32,4 # shader L1 instruction cache config  {<nsets>:<bsize>:<assoc>,<rep>:<wr>:<alloc>:<wr_alloc>,<mshr>:<N>:<merge>,<mq>} 
-gpgpu_cache:dl1     32:128:4,L:L:m:N:H,A:32:8,8 # per-shader L1 data cache config  {<nsets>:<bsize>:<assoc>,<rep>:<wr>:<alloc>:<wr_alloc>,<mshr>:<N>:<merge>,<mq> | none}
-gpgpu_cache:dl1PrefL1                 none # per-shader L1 data cache config  {<nsets>:<bsize>:<assoc>,<rep>:<wr>:<alloc>:<wr_alloc>,<mshr>:<N>:<merge>,<mq> | none}
-gpgpu_cache:dl1PreShared                 none # per-shader L1 data cache config  {<nsets>:<bsize>:<assoc>,<rep>:<wr>:<alloc>:<wr_alloc>,<mshr>:<N>:<merge>,<mq> | none}
-gmem_skip_L1D                          0 # global memory access skip L1D cache (implements -Xptxas -dlcm=cg, default=no skip)
-gpgpu_perfect_mem                      0 # enable perfect memory mode (no cache miss)
-n_regfile_gating_group                    4 # group of lanes that should be read/written together)
-gpgpu_clock_gated_reg_file                    0 # enable clock gated reg file for power calculations
-gpgpu_clock_gated_lanes                    0 # enable clock gated lanes for power calculations
-gpgpu_shader_registers                32768 # Number of registers per shader core. Limits number of concurrent CTAs. (default 8192)
-gpgpu_shader_cta                       8 # Maximum number of concurrent CTAs in shader (default 8)
-gpgpu_num_cta_barriers                   16 # Maximum number of named barriers per CTA (default 16)
-gpgpu_n_clusters                      15 # number of processing clusters
-gpgpu_n_cores_per_cluster                    1 # number of simd cores per cluster
-gpgpu_n_cluster_ejection_buffer_size                    8 # number of packets in ejection buffer
-gpgpu_n_ldst_response_buffer_size                    2 # number of response packets in ld/st unit ejection buffer
-gpgpu_shmem_size                   16384 # Size of shared memory per shader core (default 16kB)
-gpgpu_shmem_size                   49152 # Size of shared memory per shader core (default 16kB)
-gpgpu_shmem_size_PrefL1                16384 # Size of shared memory per shader core (default 16kB)
-gpgpu_shmem_size_PrefShared                16384 # Size of shared memory per shader core (default 16kB)
-gpgpu_shmem_num_banks                   32 # Number of banks in the shared memory in each shader core (default 16)
-gpgpu_shmem_limited_broadcast                    0 # Limit shared memory to do one broadcast per cycle (default on)
-gpgpu_shmem_warp_parts                    1 # Number of portions a warp is divided into for shared memory bank conflict check 
-gpgpu_warpdistro_shader                   -1 # Specify which shader core to collect the warp size distribution from
-gpgpu_warp_issue_shader                    0 # Specify which shader core to collect the warp issue distribution from
-gpgpu_local_mem_map                    1 # Mapping from local memory space address to simulated GPU physical address space (default = enabled)
-gpgpu_num_reg_banks                   16 # Number of register banks (default = 8)
-gpgpu_reg_bank_use_warp_id                    0 # Use warp ID in mapping registers to banks (default = off)
-gpgpu_operand_collector_num_units_sp                    6 # number of collector units (default = 4)
-gpgpu_operand_collector_num_units_sfu                    8 # number of collector units (default = 4)
-gpgpu_operand_collector_num_units_mem                    2 # number of collector units (default = 2)
-gpgpu_operand_collector_num_units_gen                    0 # number of collector units (default = 0)
-gpgpu_operand_collector_num_in_ports_sp                    2 # number of collector unit in ports (default = 1)
-gpgpu_operand_collector_num_in_ports_sfu                    1 # number of collector unit in ports (default = 1)
-gpgpu_operand_collector_num_in_ports_mem                    1 # number of collector unit in ports (default = 1)
-gpgpu_operand_collector_num_in_ports_gen                    0 # number of collector unit in ports (default = 0)
-gpgpu_operand_collector_num_out_ports_sp                    2 # number of collector unit in ports (default = 1)
-gpgpu_operand_collector_num_out_ports_sfu                    1 # number of collector unit in ports (default = 1)
-gpgpu_operand_collector_num_out_ports_mem                    1 # number of collector unit in ports (default = 1)
-gpgpu_operand_collector_num_out_ports_gen                    0 # number of collector unit in ports (default = 0)
-gpgpu_coalesce_arch                   13 # Coalescing arch (default = 13, anything else is off for now)
-gpgpu_num_sched_per_core                    2 # Number of warp schedulers per core
-gpgpu_max_insn_issue_per_warp                    1 # Max number of instructions that can be issued per warp in one cycle by scheduler
-gpgpu_simt_core_sim_order                    1 # Select the simulation order of cores in a cluster (0=Fix, 1=Round-Robin)
-gpgpu_pipeline_widths        2,1,1,2,1,1,2 # Pipeline widths ID_OC_SP,ID_OC_SFU,ID_OC_MEM,OC_EX_SP,OC_EX_SFU,OC_EX_MEM,EX_WB
-gpgpu_num_sp_units                     2 # Number of SP units (default=1)
-gpgpu_num_sfu_units                    1 # Number of SF units (default=1)
-gpgpu_num_mem_units                    1 # Number if ldst units (default=1) WARNING: not hooked up to anything
-gpgpu_scheduler                      gto # Scheduler configuration: < lrr | gto | two_level_active > If two_level_active:<num_active_warps>:<inner_prioritization>:<outer_prioritization>For complete list of prioritization values see shader.h enum scheduler_prioritization_typeDefault: gto
-gpgpu_dram_scheduler                    1 # 0 = fifo, 1 = FR-FCFS (defaul)
-gpgpu_dram_partition_queues              8:8:8:8 # i2$:$2d:d2$:$2i
-l2_ideal                               0 # Use a ideal L2 cache that always hit
-gpgpu_cache:dl2     64:128:8,L:B:m:W:L,A:32:4,4:0,32 # unified banked L2 data cache config  {<nsets>:<bsize>:<assoc>,<rep>:<wr>:<alloc>:<wr_alloc>,<mshr>:<N>:<merge>,<mq>}
-gpgpu_cache:dl2_texture_only                    0 # L2 cache used for texture only
-gpgpu_n_mem                            6 # number of memory modules (e.g. memory controllers) in gpu
-gpgpu_n_sub_partition_per_mchannel                    2 # number of memory subpartition in each memory module
-gpgpu_n_mem_per_ctrlr                    2 # number of memory chips per memory controller
-gpgpu_memlatency_stat                   14 # track and display latency statistics 0x2 enables MC, 0x4 enables queue logs
-gpgpu_frfcfs_dram_sched_queue_size                   16 # 0 = unlimited (default); # entries per chip
-gpgpu_dram_return_queue_size                  116 # 0 = unlimited (default); # entries per chip
-gpgpu_dram_buswidth                    4 # default = 4 bytes (8 bytes per cycle at DDR)
-gpgpu_dram_burst_length                    8 # Burst length of each DRAM request (default = 4 data bus cycle)
-dram_data_command_freq_ratio                    4 # Frequency ratio between DRAM data bus and command bus (default = 2 times, i.e. DDR)
-gpgpu_dram_timing_opt nbk=16:CCD=2:RRD=6:RCD=12:RAS=28:RP=12:RC=40: CL=12:WL=4:CDLR=5:WR=12:nbkgrp=4:CCDL=3:RTPL=2 # DRAM timing parameters = {nbk:tCCD:tRRD:tRCD:tRAS:tRP:tRC:CL:WL:tCDLR:tWR:nbkgrp:tCCDL:tRTPL}
-rop_latency                          120 # ROP queue latency (default 85)
-dram_latency                         100 # DRAM latency (default 30)
-gpgpu_mem_addr_mapping dramid@8;00000000.00000000.00000000.00000000.0000RRRR.RRRRRRRR.BBBCCCCB.CCSSSSSS # mapping memory address to dram model {dramid@<start bit>;<memory address map>}
-gpgpu_mem_addr_test                    0 # run sweep test to check address mapping for aliased address
-gpgpu_mem_address_mask                    1 # 0 = old addressing mask, 1 = new addressing mask, 2 = new add. mask + flipped bank sel and chip sel bits
-gpuwattch_xml_file  gpuwattch_gtx480.xml # GPUWattch XML file
-power_simulation_enabled                    1 # Turn on power simulator (1=On, 0=Off)
-power_per_cycle_dump                    0 # Dump detailed power output each cycle
-power_trace_enabled                    0 # produce a file for the power trace (1=On, 0=Off)
-power_trace_zlevel                     6 # Compression level of the power trace output log (0=no comp, 9=highest)
-steady_power_levels_enabled                    0 # produce a file for the steady power levels (1=On, 0=Off)
-steady_state_definition                  8:4 # allowed deviation:number of samples
-gpgpu_max_cycle                        0 # terminates gpu simulation early (0 = no limit)
-gpgpu_max_insn                         0 # terminates gpu simulation early (0 = no limit)
-gpgpu_max_cta                          0 # terminates gpu simulation early (0 = no limit)
-gpgpu_runtime_stat                   500 # display runtime statistics such as dram utilization {<freq>:<flag>}
-liveness_message_freq                    1 # Minimum number of seconds between simulation liveness messages (0 = always print)
-gpgpu_flush_l1_cache                    0 # Flush L1 cache at the end of each kernel call
-gpgpu_flush_l2_cache                    0 # Flush L2 cache at the end of each kernel call
-gpgpu_deadlock_detect                    1 # Stop the simulation at deadlock (1=on (default), 0=off)
-gpgpu_ptx_instruction_classification                    0 # if enabled will classify ptx instruction types per kernel (Max 255 kernels now)
-gpgpu_ptx_sim_mode                     0 # Select between Performance (default) or Functional simulation (1)
-gpgpu_clock_domains 700.0:700.0:700.0:924.0 # Clock Domain Frequencies in MhZ {<Core Clock>:<ICNT Clock>:<L2 Clock>:<DRAM Clock>}
-gpgpu_max_concurrent_kernel                    8 # maximum kernels that can run concurrently on GPU
-gpgpu_cflog_interval                    0 # Interval between each snapshot in control flow logger
-visualizer_enabled                     0 # Turn on visualizer output (1=On, 0=Off)
-visualizer_outputfile                 NULL # Specifies the output log file for visualizer
-visualizer_zlevel                      6 # Compression level of the visualizer output log (0=no comp, 9=highest)
-trace_enabled                          0 # Turn on traces
-trace_components                    none # comma seperated list of traces to enable. Complete list found in trace_streams.tup. Default none
-trace_sampling_core                    0 # The core which is printed using CORE_DPRINTF. Default 0
-trace_sampling_memory_partition                   -1 # The memory partition which is printed using MEMPART_DPRINTF. Default -1 (i.e. all)
-enable_ptx_file_line_stats                    1 # Turn on PTX source line statistic profiling. (1 = On)
-ptx_line_stats_filename gpgpu_inst_stats.txt # Output file for PTX source line statistics.
-save_embedded_ptx                      0 # saves ptx files embedded in binary as <n>.ptx
-keep                                   0 # keep intermediate files created by GPGPU-Sim when interfacing with external programs
-gpgpu_ptx_save_converted_ptxplus                    0 # Saved converted ptxplus to a file
-ptx_opcode_latency_int         4,13,4,5,145 # Opcode latencies for integers <ADD,MAX,MUL,MAD,DIV>Default 1,1,19,25,145
-ptx_opcode_latency_fp          4,13,4,5,39 # Opcode latencies for single precision floating points <ADD,MAX,MUL,MAD,DIV>Default 1,1,1,1,30
-ptx_opcode_latency_dp         8,19,8,8,330 # Opcode latencies for double precision floating points <ADD,MAX,MUL,MAD,DIV>Default 8,8,8,8,335
-ptx_opcode_initiation_int            1,2,2,1,8 # Opcode initiation intervals for integers <ADD,MAX,MUL,MAD,DIV>Default 1,1,4,4,32
-ptx_opcode_initiation_fp            1,2,1,1,4 # Opcode initiation intervals for single precision floating points <ADD,MAX,MUL,MAD,DIV>Default 1,1,1,1,5
-ptx_opcode_initiation_dp         8,16,8,8,130 # Opcode initiation intervals for double precision floating points <ADD,MAX,MUL,MAD,DIV>Default 8,8,8,8,130
DRAM Timing Options:
nbk                                    16 # number of banks
CCD                                     2 # column to column delay
RRD                                     6 # minimal delay between activation of rows in different banks
RCD                                    12 # row to column delay
RAS                                    28 # time needed to activate row
RP                                     12 # time needed to precharge (deactivate) row
RC                                     40 # row cycle time
CDLR                                    5 # switching from write to read (changes tWTR)
WR                                     12 # last data-in to row precharge
CL                                     12 # CAS latency
WL                                      4 # Write latency
nbkgrp                                  4 # number of bank groups
CCDL                                    3 # column to column delay between accesses to different bank groups
RTPL                                    2 # read to precharge delay between accesses to different bank groups
Total number of memory sub partition = 12
addr_dec_mask[CHIP]  = 0000000000000000 	high:64 low:0
addr_dec_mask[BK]    = 000000000000e100 	high:16 low:8
addr_dec_mask[ROW]   = 000000000fff0000 	high:28 low:16
addr_dec_mask[COL]   = 0000000000001eff 	high:13 low:0
addr_dec_mask[BURST] = 000000000000003f 	high:6 low:0
sub_partition_id_mask = 0000000000000100
GPGPU-Sim uArch: clock freqs: 700000000.000000:700000000.000000:700000000.000000:924000000.000000
GPGPU-Sim uArch: clock periods: 0.00000000142857142857:0.00000000142857142857:0.00000000142857142857:0.00000000108225108225
*** Initializing Memory Statistics ***
GPGPU-Sim uArch: interconnect node map (shaderID+MemID to icntID)
GPGPU-Sim uArch: Memory nodes ID start from index: 15
GPGPU-Sim uArch:    0   1   2   3   4
GPGPU-Sim uArch:    5   6   7   8   9
GPGPU-Sim uArch:   10  11  12  13  14
GPGPU-Sim uArch:   15  16  17  18  19
GPGPU-Sim uArch:   20  21  22  23  24
GPGPU-Sim uArch:   25  26
GPGPU-Sim uArch: interconnect node reverse map (icntID to shaderID+MemID)
GPGPU-Sim uArch: Memory nodes start from ID: 15
GPGPU-Sim uArch:    0   1   2   3   4
GPGPU-Sim uArch:    5   6   7   8   9
GPGPU-Sim uArch:   10  11  12  13  14
GPGPU-Sim uArch:   15  16  17  18  19
GPGPU-Sim uArch:   20  21  22  23  24
GPGPU-Sim uArch:   25  26
6fa77e2b59d72d216ec8e5d87278f0fb  /root/CS217_GPU/Lab1Optimized/reduction
GPGPU-Sim uArch: performance model initialization complete.
GPGPU-Sim PTX: __cudaRegisterFatBinary, fat_cubin_handle = 1, filename=main.cu
self exe links to: /root/CS217_GPU/Lab1Optimized/reduction
Running md5sum using "md5sum /root/CS217_GPU/Lab1Optimized/reduction "
Running cuobjdump using "$CUDA_INSTALL_PATH/bin/cuobjdump -ptx -elf -sass /root/CS217_GPU/Lab1Optimized/reduction > _cuobjdump_complete_output_Wg6BrK"
Parsing file _cuobjdump_complete_output_Wg6BrK
######### cuobjdump parser ########
## Adding new section ELF
Adding arch: sm_10
Adding identifier: main.cu
## Adding new section PTX
Adding ptx filename: _cuobjdump_1.ptx
Adding arch: sm_10
Adding identifier: main.cu
## Adding new section ELF
Adding arch: sm_10
Adding identifier: support.cu
## Adding new section PTX
Adding ptx filename: _cuobjdump_2.ptx
Adding arch: sm_10
Adding identifier: support.cu
Done parsing!!!
GPGPU-Sim PTX: __cudaRegisterFunction _Z9reductionPfS_j : hostFun 0x0x400e40, fat_cubin_handle = 1
GPGPU-Sim PTX: allocating shared region for "__cuda___cuda_local_var_16314_59_non_const_partialSumVector20" from 0x0 to 0x1000 (shared memory space)
GPGPU-Sim PTX: instruction assembly for function '_Z9reductionPfS_j'...   done.
GPGPU-Sim PTX: finding reconvergence points for '_Z9reductionPfS_j'...
GPGPU-Sim PTX: Finding dominators for '_Z9reductionPfS_j'...
GPGPU-Sim PTX: Finding immediate dominators for '_Z9reductionPfS_j'...
GPGPU-Sim PTX: Finding postdominators for '_Z9reductionPfS_j'...
GPGPU-Sim PTX: Finding immediate postdominators for '_Z9reductionPfS_j'...
GPGPU-Sim PTX: pre-decoding instructions for '_Z9reductionPfS_j'...
GPGPU-Sim PTX: reconvergence points for _Z9reductionPfS_j...
GPGPU-Sim PTX:  1 (potential) branch divergence @  PC=0x060 (_1.ptx:73) @%p1 bra $Lt_0_3842;
GPGPU-Sim PTX:    immediate post dominator      @  PC=0x0b0 (_1.ptx:87) add.u32 %r8, %r5, %r1;
GPGPU-Sim PTX:  2 (potential) branch divergence @  PC=0x098 (_1.ptx:81) bra.uni $Lt_0_3586;
GPGPU-Sim PTX:    immediate post dominator      @  PC=0x0b0 (_1.ptx:87) add.u32 %r8, %r5, %r1;
GPGPU-Sim PTX:  3 (potential) branch divergence @  PC=0x0f0 (_1.ptx:97) @%p2 bra $Lt_0_4354;
GPGPU-Sim PTX:    immediate post dominator      @  PC=0x140 (_1.ptx:112) mov.s32 %r11, %r1;
GPGPU-Sim PTX:  4 (potential) branch divergence @  PC=0x128 (_1.ptx:105) bra.uni $Lt_0_4098;
GPGPU-Sim PTX:    immediate post dominator      @  PC=0x140 (_1.ptx:112) mov.s32 %r11, %r1;
GPGPU-Sim PTX:  5 (potential) branch divergence @  PC=0x158 (_1.ptx:115) @%p3 bra $Lt_0_4610;
GPGPU-Sim PTX:    immediate post dominator      @  PC=0x1e0 (_1.ptx:140) ld.shared.f32 %f8, [__cuda___cuda_local_var_16314_59_non_const_partialSumVector20+0];
GPGPU-Sim PTX:  6 (potential) branch divergence @  PC=0x170 (_1.ptx:120) @%p4 bra $Lt_0_5378;
GPGPU-Sim PTX:    immediate post dominator      @  PC=0x1b8 (_1.ptx:132) bar.sync 0;
GPGPU-Sim PTX:  7 (potential) branch divergence @  PC=0x1d8 (_1.ptx:137) @%p5 bra $Lt_0_5122;
GPGPU-Sim PTX:    immediate post dominator      @  PC=0x1e0 (_1.ptx:140) ld.shared.f32 %f8, [__cuda___cuda_local_var_16314_59_non_const_partialSumVector20+0];
GPGPU-Sim PTX: ... end of reconvergence points for _Z9reductionPfS_j
GPGPU-Sim PTX: ... done pre-decoding instructions for '_Z9reductionPfS_j'.
GPGPU-Sim PTX: finished parsing EMBEDDED .ptx file _1.ptx
Adding _cuobjdump_1.ptx with cubin handle 1
GPGPU-Sim PTX: extracting embedded .ptx to temporary file "_ptx_NOeBAO"
Running: cat _ptx_NOeBAO | sed 's/.version 1.5/.version 1.4/' | sed 's/, texmode_independent//' | sed 's/\(\.extern \.const\[1\] .b8 \w\+\)\[\]/\1\[1\]/' | sed 's/const\[.\]/const\[0\]/g' > _ptx2_8tHBJS
GPGPU-Sim PTX: generating ptxinfo using "$CUDA_INSTALL_PATH/bin/ptxas --gpu-name=sm_20 -v _ptx2_8tHBJS --output-file  /dev/null 2> _ptx_NOeBAOinfo"
GPGPU-Sim PTX: Kernel '_Z9reductionPfS_j' : regs=10, lmem=0, smem=4096, cmem=52
GPGPU-Sim PTX: removing ptxinfo using "rm -f _ptx_NOeBAO _ptx2_8tHBJS _ptx_NOeBAOinfo"
GPGPU-Sim PTX: loading globals with explicit initializers... 
GPGPU-Sim PTX: finished loading globals (0 bytes total).
GPGPU-Sim PTX: loading constants with explicit initializers...  done.
GPGPU-Sim PTX: __cudaRegisterFatBinary, fat_cubin_handle = 2, filename=support.cu

Setting up the problem...0.029943 s
    Input size = 1000000
Allocating device variables...0.000021 s
Copying data from host to device...0.108826 s
Launching kernel...
GPGPU-Sim PTX: cudaLaunch for 0x0x400e40 (mode=performance simulation) on stream 0
GPGPU-Sim PTX: pushing kernel '_Z9reductionPfS_j' to stream 0, gridDim= (977,1,1) blockDim = (512,1,1) 
kernel '_Z9reductionPfS_j' transfer to GPU hardware scheduler
GPGPU-Sim uArch: Shader 1 bind to kernel 1 '_Z9reductionPfS_j'
GPGPU-Sim uArch: CTA/core = 3, limited by: threads
GPGPU-Sim uArch: core:  1, cta: 0 initialized @(1,0)
GPGPU-Sim uArch: Shader 2 bind to kernel 1 '_Z9reductionPfS_j'
GPGPU-Sim uArch: core:  2, cta: 0 initialized @(1,0)
GPGPU-Sim uArch: Shader 3 bind to kernel 1 '_Z9reductionPfS_j'
GPGPU-Sim uArch: core:  3, cta: 0 initialized @(1,0)
GPGPU-Sim uArch: Shader 4 bind to kernel 1 '_Z9reductionPfS_j'
GPGPU-Sim uArch: core:  4, cta: 0 initialized @(1,0)
GPGPU-Sim uArch: Shader 5 bind to kernel 1 '_Z9reductionPfS_j'
GPGPU-Sim uArch: core:  5, cta: 0 initialized @(1,0)
GPGPU-Sim uArch: Shader 6 bind to kernel 1 '_Z9reductionPfS_j'
GPGPU-Sim uArch: core:  6, cta: 0 initialized @(1,0)
GPGPU-Sim uArch: Shader 7 bind to kernel 1 '_Z9reductionPfS_j'
GPGPU-Sim uArch: core:  7, cta: 0 initialized @(1,0)
GPGPU-Sim uArch: Shader 8 bind to kernel 1 '_Z9reductionPfS_j'
GPGPU-Sim uArch: core:  8, cta: 0 initialized @(1,0)
GPGPU-Sim uArch: Shader 9 bind to kernel 1 '_Z9reductionPfS_j'
GPGPU-Sim uArch: core:  9, cta: 0 initialized @(1,0)
GPGPU-Sim uArch: Shader 10 bind to kernel 1 '_Z9reductionPfS_j'
GPGPU-Sim uArch: core: 10, cta: 0 initialized @(1,0)
GPGPU-Sim uArch: Shader 11 bind to kernel 1 '_Z9reductionPfS_j'
GPGPU-Sim uArch: core: 11, cta: 0 initialized @(1,0)
GPGPU-Sim uArch: Shader 12 bind to kernel 1 '_Z9reductionPfS_j'
GPGPU-Sim uArch: core: 12, cta: 0 initialized @(1,0)
GPGPU-Sim uArch: Shader 13 bind to kernel 1 '_Z9reductionPfS_j'
GPGPU-Sim uArch: core: 13, cta: 0 initialized @(1,0)
GPGPU-Sim uArch: Shader 14 bind to kernel 1 '_Z9reductionPfS_j'
GPGPU-Sim uArch: core: 14, cta: 0 initialized @(1,0)
GPGPU-Sim uArch: Shader 0 bind to kernel 1 '_Z9reductionPfS_j'
GPGPU-Sim uArch: core:  0, cta: 0 initialized @(1,0)
GPGPU-Sim uArch: core:  1, cta: 1 initialized @(2,0)
GPGPU-Sim uArch: core:  2, cta: 1 initialized @(2,0)
GPGPU-Sim uArch: core:  3, cta: 1 initialized @(2,0)
GPGPU-Sim uArch: core:  4, cta: 1 initialized @(2,0)
GPGPU-Sim uArch: core:  5, cta: 1 initialized @(2,0)
GPGPU-Sim uArch: core:  6, cta: 1 initialized @(2,0)
GPGPU-Sim uArch: core:  7, cta: 1 initialized @(2,0)
GPGPU-Sim uArch: core:  8, cta: 1 initialized @(2,0)
GPGPU-Sim uArch: core:  9, cta: 1 initialized @(2,0)
GPGPU-Sim uArch: core: 10, cta: 1 initialized @(2,0)
GPGPU-Sim uArch: core: 11, cta: 1 initialized @(2,0)
GPGPU-Sim uArch: core: 12, cta: 1 initialized @(2,0)
GPGPU-Sim uArch: core: 13, cta: 1 initialized @(2,0)
GPGPU-Sim uArch: core: 14, cta: 1 initialized @(2,0)
GPGPU-Sim uArch: core:  0, cta: 1 initialized @(2,0)
GPGPU-Sim uArch: core:  1, cta: 2 initialized @(3,0)
GPGPU-Sim uArch: core:  2, cta: 2 initialized @(3,0)
GPGPU-Sim uArch: core:  3, cta: 2 initialized @(3,0)
GPGPU-Sim uArch: core:  4, cta: 2 initialized @(3,0)
GPGPU-Sim uArch: core:  5, cta: 2 initialized @(3,0)
GPGPU-Sim uArch: core:  6, cta: 2 initialized @(3,0)
GPGPU-Sim uArch: core:  7, cta: 2 initialized @(3,0)
GPGPU-Sim uArch: core:  8, cta: 2 initialized @(3,0)
GPGPU-Sim uArch: core:  9, cta: 2 initialized @(3,0)
GPGPU-Sim uArch: core: 10, cta: 2 initialized @(3,0)
GPGPU-Sim uArch: core: 11, cta: 2 initialized @(3,0)
GPGPU-Sim uArch: core: 12, cta: 2 initialized @(3,0)
GPGPU-Sim uArch: core: 13, cta: 2 initialized @(3,0)
GPGPU-Sim uArch: core: 14, cta: 2 initialized @(3,0)
GPGPU-Sim uArch: core:  0, cta: 2 initialized @(3,0)
GPGPU-Sim PTX: 100000 instructions simulated : ctaid=(15,0,0) tid=(191,0,0)
GPGPU-Sim uArch: cycles simulated: 500  inst.: 134016 (ipc=268.0) sim_rate=134016 (inst/sec) elapsed = 0:0:00:01 / Wed Jan 30 01:40:54 2019
GPGPU-Sim PTX: 200000 instructions simulated : ctaid=(24,0,0) tid=(383,0,0)
GPGPU-Sim PTX: 300000 instructions simulated : ctaid=(10,0,0) tid=(383,0,0)
GPGPU-Sim PTX: 400000 instructions simulated : ctaid=(42,0,0) tid=(287,0,0)
GPGPU-Sim PTX: 500000 instructions simulated : ctaid=(15,0,0) tid=(127,0,0)
GPGPU-Sim PTX: 600000 instructions simulated : ctaid=(42,0,0) tid=(191,0,0)
GPGPU-Sim uArch: cycles simulated: 2000  inst.: 625568 (ipc=312.8) sim_rate=312784 (inst/sec) elapsed = 0:0:00:02 / Wed Jan 30 01:40:55 2019
GPGPU-Sim PTX: 700000 instructions simulated : ctaid=(19,0,0) tid=(159,0,0)
GPGPU-Sim PTX: 800000 instructions simulated : ctaid=(11,0,0) tid=(159,0,0)
GPGPU-Sim PTX: 900000 instructions simulated : ctaid=(30,0,0) tid=(319,0,0)
GPGPU-Sim PTX: 1000000 instructions simulated : ctaid=(21,0,0) tid=(415,0,0)
GPGPU-Sim uArch: cycles simulated: 3000  inst.: 954432 (ipc=318.1) sim_rate=318144 (inst/sec) elapsed = 0:0:00:03 / Wed Jan 30 01:40:56 2019
GPGPU-Sim PTX: 1100000 instructions simulated : ctaid=(12,0,0) tid=(351,0,0)
GPGPU-Sim PTX: 1200000 instructions simulated : ctaid=(16,0,0) tid=(63,0,0)
GPGPU-Sim PTX: 1300000 instructions simulated : ctaid=(27,0,0) tid=(159,0,0)
GPGPU-Sim PTX: 1400000 instructions simulated : ctaid=(30,0,0) tid=(95,0,0)
GPGPU-Sim PTX: 1500000 instructions simulated : ctaid=(1,0,0) tid=(127,0,0)
GPGPU-Sim PTX: 1600000 instructions simulated : ctaid=(23,0,0) tid=(255,0,0)
GPGPU-Sim PTX: 1700000 instructions simulated : ctaid=(25,0,0) tid=(319,0,0)
GPGPU-Sim PTX: 1800000 instructions simulated : ctaid=(5,0,0) tid=(175,0,0)
GPGPU-Sim uArch: cycles simulated: 4000  inst.: 1732640 (ipc=433.2) sim_rate=433160 (inst/sec) elapsed = 0:0:00:04 / Wed Jan 30 01:40:57 2019
GPGPU-Sim PTX: 1900000 instructions simulated : ctaid=(41,0,0) tid=(479,0,0)
GPGPU-Sim PTX: 2000000 instructions simulated : ctaid=(44,0,0) tid=(455,0,0)
GPGPU-Sim PTX: 2100000 instructions simulated : ctaid=(37,0,0) tid=(303,0,0)
GPGPU-Sim PTX: 2200000 instructions simulated : ctaid=(10,0,0) tid=(291,0,0)
GPGPU-Sim PTX: 2300000 instructions simulated : ctaid=(11,0,0) tid=(491,0,0)
GPGPU-Sim PTX: 2400000 instructions simulated : ctaid=(17,0,0) tid=(279,0,0)
GPGPU-Sim PTX: 2500000 instructions simulated : ctaid=(30,0,0) tid=(28,0,0)
GPGPU-Sim PTX: 2600000 instructions simulated : ctaid=(18,0,0) tid=(426,0,0)
GPGPU-Sim uArch: cycles simulated: 5000  inst.: 2484971 (ipc=497.0) sim_rate=496994 (inst/sec) elapsed = 0:0:00:05 / Wed Jan 30 01:40:58 2019
GPGPU-Sim PTX: 2700000 instructions simulated : ctaid=(38,0,0) tid=(233,0,0)
GPGPU-Sim PTX: 2800000 instructions simulated : ctaid=(19,0,0) tid=(352,0,0)
GPGPU-Sim PTX: 2900000 instructions simulated : ctaid=(13,0,0) tid=(496,0,0)
GPGPU-Sim PTX: 3000000 instructions simulated : ctaid=(30,0,0) tid=(350,0,0)
GPGPU-Sim uArch: Shader 1 finished CTA #0 (5580,0), 2 CTAs running
GPGPU-Sim uArch: core:  1, cta: 0 initialized @(5581,0)
GPGPU-Sim uArch: Shader 2 finished CTA #0 (5608,0), 2 CTAs running
GPGPU-Sim uArch: core:  2, cta: 0 initialized @(5609,0)
GPGPU-Sim PTX: 3100000 instructions simulated : ctaid=(34,0,0) tid=(133,0,0)
GPGPU-Sim uArch: Shader 1 finished CTA #1 (5787,0), 2 CTAs running
GPGPU-Sim uArch: core:  1, cta: 1 initialized @(5788,0)
GPGPU-Sim PTX: 3200000 instructions simulated : ctaid=(41,0,0) tid=(389,0,0)
GPGPU-Sim uArch: Shader 2 finished CTA #1 (6319,0), 2 CTAs running
GPGPU-Sim uArch: core:  2, cta: 1 initialized @(6320,0)
GPGPU-Sim uArch: Shader 4 finished CTA #0 (6325,0), 2 CTAs running
GPGPU-Sim uArch: core:  4, cta: 0 initialized @(6326,0)
GPGPU-Sim uArch: Shader 7 finished CTA #0 (6334,0), 2 CTAs running
GPGPU-Sim uArch: core:  7, cta: 0 initialized @(6335,0)
GPGPU-Sim uArch: Shader 10 finished CTA #0 (6343,0), 2 CTAs running
GPGPU-Sim uArch: core: 10, cta: 0 initialized @(6344,0)
GPGPU-Sim uArch: Shader 14 finished CTA #0 (6355,0), 2 CTAs running
GPGPU-Sim uArch: core: 14, cta: 0 initialized @(6356,0)
GPGPU-Sim uArch: Shader 3 finished CTA #0 (6367,0), 2 CTAs running
GPGPU-Sim uArch: core:  3, cta: 0 initialized @(6368,0)
GPGPU-Sim uArch: Shader 5 finished CTA #0 (6374,0), 2 CTAs running
GPGPU-Sim uArch: core:  5, cta: 0 initialized @(6375,0)
GPGPU-Sim uArch: Shader 6 finished CTA #0 (6377,0), 2 CTAs running
GPGPU-Sim uArch: core:  6, cta: 0 initialized @(6378,0)
GPGPU-Sim uArch: Shader 8 finished CTA #0 (6383,0), 2 CTAs running
GPGPU-Sim uArch: core:  8, cta: 0 initialized @(6384,0)
GPGPU-Sim uArch: Shader 11 finished CTA #0 (6392,0), 2 CTAs running
GPGPU-Sim uArch: core: 11, cta: 0 initialized @(6393,0)
GPGPU-Sim PTX: 3300000 instructions simulated : ctaid=(49,0,0) tid=(106,0,0)
GPGPU-Sim uArch: Shader 12 finished CTA #0 (6484,0), 2 CTAs running
GPGPU-Sim uArch: core: 12, cta: 0 initialized @(6485,0)
GPGPU-Sim uArch: cycles simulated: 6500  inst.: 3217765 (ipc=495.0) sim_rate=536294 (inst/sec) elapsed = 0:0:00:06 / Wed Jan 30 01:40:59 2019
GPGPU-Sim uArch: Shader 9 finished CTA #0 (6565,0), 2 CTAs running
GPGPU-Sim uArch: core:  9, cta: 0 initialized @(6566,0)
GPGPU-Sim uArch: Shader 0 finished CTA #0 (6583,0), 2 CTAs running
GPGPU-Sim uArch: core:  0, cta: 0 initialized @(6584,0)
GPGPU-Sim uArch: Shader 13 finished CTA #0 (6622,0), 2 CTAs running
GPGPU-Sim uArch: core: 13, cta: 0 initialized @(6623,0)
GPGPU-Sim PTX: 3400000 instructions simulated : ctaid=(61,0,0) tid=(7,0,0)
GPGPU-Sim uArch: Shader 1 finished CTA #2 (6856,0), 2 CTAs running
GPGPU-Sim uArch: core:  1, cta: 2 initialized @(6857,0)
GPGPU-Sim uArch: Shader 2 finished CTA #2 (7062,0), 2 CTAs running
GPGPU-Sim uArch: core:  2, cta: 2 initialized @(7063,0)
GPGPU-Sim uArch: Shader 3 finished CTA #1 (7064,0), 2 CTAs running
GPGPU-Sim uArch: core:  3, cta: 1 initialized @(7065,0)
GPGPU-Sim uArch: Shader 4 finished CTA #1 (7066,0), 2 CTAs running
GPGPU-Sim uArch: core:  4, cta: 1 initialized @(7067,0)
GPGPU-Sim uArch: Shader 5 finished CTA #1 (7068,0), 2 CTAs running
GPGPU-Sim uArch: core:  5, cta: 1 initialized @(7069,0)
GPGPU-Sim uArch: Shader 6 finished CTA #1 (7070,0), 2 CTAs running
GPGPU-Sim uArch: core:  6, cta: 1 initialized @(7071,0)
GPGPU-Sim uArch: Shader 7 finished CTA #1 (7072,0), 2 CTAs running
GPGPU-Sim uArch: core:  7, cta: 1 initialized @(7073,0)
GPGPU-Sim uArch: Shader 8 finished CTA #1 (7074,0), 2 CTAs running
GPGPU-Sim uArch: core:  8, cta: 1 initialized @(7075,0)
GPGPU-Sim uArch: Shader 10 finished CTA #1 (7078,0), 2 CTAs running
GPGPU-Sim uArch: core: 10, cta: 1 initialized @(7079,0)
GPGPU-Sim uArch: Shader 11 finished CTA #1 (7094,0), 2 CTAs running
GPGPU-Sim uArch: core: 11, cta: 1 initialized @(7095,0)
GPGPU-Sim uArch: Shader 14 finished CTA #1 (7100,0), 2 CTAs running
GPGPU-Sim uArch: core: 14, cta: 1 initialized @(7101,0)
GPGPU-Sim PTX: 3500000 instructions simulated : ctaid=(71,0,0) tid=(231,0,0)
GPGPU-Sim uArch: Shader 12 finished CTA #1 (7222,0), 2 CTAs running
GPGPU-Sim uArch: core: 12, cta: 1 initialized @(7223,0)
GPGPU-Sim uArch: Shader 9 finished CTA #1 (7246,0), 2 CTAs running
GPGPU-Sim uArch: core:  9, cta: 1 initialized @(7247,0)
GPGPU-Sim uArch: Shader 13 finished CTA #1 (7306,0), 2 CTAs running
GPGPU-Sim uArch: core: 13, cta: 1 initialized @(7307,0)
GPGPU-Sim uArch: Shader 0 finished CTA #1 (7422,0), 2 CTAs running
GPGPU-Sim uArch: core:  0, cta: 1 initialized @(7423,0)
GPGPU-Sim PTX: 3600000 instructions simulated : ctaid=(73,0,0) tid=(455,0,0)
GPGPU-Sim uArch: cycles simulated: 7500  inst.: 3435717 (ipc=458.1) sim_rate=490816 (inst/sec) elapsed = 0:0:00:07 / Wed Jan 30 01:41:00 2019
GPGPU-Sim uArch: Shader 4 finished CTA #2 (7799,0), 2 CTAs running
GPGPU-Sim uArch: core:  4, cta: 2 initialized @(7800,0)
GPGPU-Sim uArch: Shader 6 finished CTA #2 (7801,0), 2 CTAs running
GPGPU-Sim uArch: core:  6, cta: 2 initialized @(7802,0)
GPGPU-Sim uArch: Shader 7 finished CTA #2 (7807,0), 2 CTAs running
GPGPU-Sim uArch: core:  7, cta: 2 initialized @(7808,0)
GPGPU-Sim uArch: Shader 8 finished CTA #2 (7809,0), 2 CTAs running
GPGPU-Sim uArch: core:  8, cta: 2 initialized @(7810,0)
GPGPU-Sim uArch: Shader 14 finished CTA #2 (7820,0), 2 CTAs running
GPGPU-Sim uArch: core: 14, cta: 2 initialized @(7821,0)
GPGPU-Sim uArch: Shader 3 finished CTA #2 (7826,0), 2 CTAs running
GPGPU-Sim uArch: core:  3, cta: 2 initialized @(7827,0)
GPGPU-Sim uArch: Shader 5 finished CTA #2 (7829,0), 2 CTAs running
GPGPU-Sim uArch: core:  5, cta: 2 initialized @(7830,0)
GPGPU-Sim uArch: Shader 10 finished CTA #2 (7839,0), 2 CTAs running
GPGPU-Sim uArch: core: 10, cta: 2 initialized @(7840,0)
GPGPU-Sim uArch: Shader 11 finished CTA #2 (7842,0), 2 CTAs running
GPGPU-Sim uArch: core: 11, cta: 2 initialized @(7843,0)
GPGPU-Sim uArch: Shader 12 finished CTA #2 (7845,0), 2 CTAs running
GPGPU-Sim uArch: core: 12, cta: 2 initialized @(7846,0)
GPGPU-Sim PTX: 3700000 instructions simulated : ctaid=(84,0,0) tid=(295,0,0)
GPGPU-Sim uArch: Shader 9 finished CTA #2 (7877,0), 2 CTAs running
GPGPU-Sim uArch: core:  9, cta: 2 initialized @(7878,0)
GPGPU-Sim uArch: Shader 13 finished CTA #2 (7896,0), 2 CTAs running
GPGPU-Sim uArch: core: 13, cta: 2 initialized @(7897,0)
GPGPU-Sim uArch: Shader 0 finished CTA #2 (7910,0), 2 CTAs running
GPGPU-Sim uArch: core:  0, cta: 2 initialized @(7911,0)
GPGPU-Sim PTX: 3800000 instructions simulated : ctaid=(45,0,0) tid=(487,0,0)
GPGPU-Sim PTX: 3900000 instructions simulated : ctaid=(69,0,0) tid=(7,0,0)
GPGPU-Sim PTX: 4000000 instructions simulated : ctaid=(75,0,0) tid=(151,0,0)
GPGPU-Sim PTX: 4100000 instructions simulated : ctaid=(82,0,0) tid=(231,0,0)
GPGPU-Sim uArch: cycles simulated: 8500  inst.: 3944629 (ipc=464.1) sim_rate=493078 (inst/sec) elapsed = 0:0:00:08 / Wed Jan 30 01:41:01 2019
GPGPU-Sim PTX: 4200000 instructions simulated : ctaid=(67,0,0) tid=(223,0,0)
GPGPU-Sim PTX: 4300000 instructions simulated : ctaid=(58,0,0) tid=(455,0,0)
GPGPU-Sim PTX: 4400000 instructions simulated : ctaid=(52,0,0) tid=(271,0,0)
GPGPU-Sim PTX: 4500000 instructions simulated : ctaid=(56,0,0) tid=(71,0,0)
GPGPU-Sim uArch: cycles simulated: 9000  inst.: 4289327 (ipc=476.6) sim_rate=476591 (inst/sec) elapsed = 0:0:00:09 / Wed Jan 30 01:41:02 2019
GPGPU-Sim PTX: 4600000 instructions simulated : ctaid=(52,0,0) tid=(43,0,0)
GPGPU-Sim PTX: 4700000 instructions simulated : ctaid=(63,0,0) tid=(311,0,0)
GPGPU-Sim PTX: 4800000 instructions simulated : ctaid=(81,0,0) tid=(421,0,0)
GPGPU-Sim PTX: 4900000 instructions simulated : ctaid=(49,0,0) tid=(263,0,0)
GPGPU-Sim uArch: cycles simulated: 9500  inst.: 4682416 (ipc=492.9) sim_rate=468241 (inst/sec) elapsed = 0:0:00:10 / Wed Jan 30 01:41:03 2019
GPGPU-Sim PTX: 5000000 instructions simulated : ctaid=(89,0,0) tid=(231,0,0)
GPGPU-Sim uArch: Shader 1 finished CTA #0 (9618,0), 2 CTAs running
GPGPU-Sim uArch: core:  1, cta: 0 initialized @(9619,0)
GPGPU-Sim PTX: 5100000 instructions simulated : ctaid=(46,0,0) tid=(307,0,0)
GPGPU-Sim PTX: 5200000 instructions simulated : ctaid=(64,0,0) tid=(351,0,0)
GPGPU-Sim uArch: Shader 2 finished CTA #0 (9935,0), 2 CTAs running
GPGPU-Sim uArch: core:  2, cta: 0 initialized @(9936,0)
GPGPU-Sim PTX: 5300000 instructions simulated : ctaid=(68,0,0) tid=(311,0,0)
GPGPU-Sim PTX: 5400000 instructions simulated : ctaid=(77,0,0) tid=(155,0,0)
GPGPU-Sim PTX: 5500000 instructions simulated : ctaid=(52,0,0) tid=(173,0,0)
GPGPU-Sim PTX: 5600000 instructions simulated : ctaid=(79,0,0) tid=(444,0,0)
GPGPU-Sim uArch: Shader 1 finished CTA #1 (10474,0), 2 CTAs running
GPGPU-Sim uArch: core:  1, cta: 1 initialized @(10475,0)
GPGPU-Sim PTX: 5700000 instructions simulated : ctaid=(72,0,0) tid=(160,0,0)
GPGPU-Sim uArch: cycles simulated: 10500  inst.: 5447215 (ipc=518.8) sim_rate=495201 (inst/sec) elapsed = 0:0:00:11 / Wed Jan 30 01:41:04 2019
GPGPU-Sim PTX: 5800000 instructions simulated : ctaid=(79,0,0) tid=(261,0,0)
GPGPU-Sim uArch: Shader 2 finished CTA #1 (10701,0), 2 CTAs running
GPGPU-Sim uArch: core:  2, cta: 1 initialized @(10702,0)
GPGPU-Sim PTX: 5900000 instructions simulated : ctaid=(92,0,0) tid=(195,0,0)
GPGPU-Sim PTX: 6000000 instructions simulated : ctaid=(58,0,0) tid=(148,0,0)
GPGPU-Sim uArch: Shader 4 finished CTA #0 (10900,0), 2 CTAs running
GPGPU-Sim uArch: core:  4, cta: 0 initialized @(10901,0)
GPGPU-Sim PTX: 6100000 instructions simulated : ctaid=(86,0,0) tid=(340,0,0)
GPGPU-Sim uArch: Shader 7 finished CTA #0 (11042,0), 2 CTAs running
GPGPU-Sim uArch: core:  7, cta: 0 initialized @(11043,0)
GPGPU-Sim PTX: 6200000 instructions simulated : ctaid=(64,0,0) tid=(155,0,0)
GPGPU-Sim PTX: 6300000 instructions simulated : ctaid=(64,0,0) tid=(279,0,0)
GPGPU-Sim uArch: Shader 11 finished CTA #0 (11314,0), 2 CTAs running
GPGPU-Sim uArch: core: 11, cta: 0 initialized @(11315,0)
GPGPU-Sim uArch: Shader 14 finished CTA #0 (11318,0), 2 CTAs running
GPGPU-Sim uArch: core: 14, cta: 0 initialized @(11319,0)
GPGPU-Sim PTX: 6400000 instructions simulated : ctaid=(70,0,0) tid=(491,0,0)
GPGPU-Sim uArch: cycles simulated: 11500  inst.: 6185397 (ipc=537.9) sim_rate=515449 (inst/sec) elapsed = 0:0:00:12 / Wed Jan 30 01:41:05 2019
GPGPU-Sim PTX: 6500000 instructions simulated : ctaid=(96,0,0) tid=(163,0,0)
GPGPU-Sim uArch: Shader 3 finished CTA #0 (11568,0), 2 CTAs running
GPGPU-Sim uArch: core:  3, cta: 0 initialized @(11569,0)
GPGPU-Sim uArch: Shader 1 finished CTA #2 (11600,0), 2 CTAs running
GPGPU-Sim uArch: core:  1, cta: 2 initialized @(11601,0)
GPGPU-Sim uArch: Shader 14 finished CTA #1 (11627,0), 2 CTAs running
GPGPU-Sim uArch: core: 14, cta: 1 initialized @(11628,0)
GPGPU-Sim uArch: Shader 0 finished CTA #0 (11649,0), 2 CTAs running
GPGPU-Sim uArch: core:  0, cta: 0 initialized @(11650,0)
GPGPU-Sim uArch: Shader 6 finished CTA #0 (11658,0), 2 CTAs running
GPGPU-Sim uArch: core:  6, cta: 0 initialized @(11659,0)
GPGPU-Sim uArch: Shader 12 finished CTA #0 (11670,0), 2 CTAs running
GPGPU-Sim uArch: core: 12, cta: 0 initialized @(11671,0)
GPGPU-Sim uArch: Shader 9 finished CTA #0 (11693,0), 2 CTAs running
GPGPU-Sim uArch: core:  9, cta: 0 initialized @(11694,0)
GPGPU-Sim uArch: Shader 10 finished CTA #0 (11703,0), 2 CTAs running
GPGPU-Sim uArch: core: 10, cta: 0 initialized @(11704,0)
GPGPU-Sim PTX: 6600000 instructions simulated : ctaid=(79,0,0) tid=(73,0,0)
GPGPU-Sim uArch: Shader 5 finished CTA #0 (11724,0), 2 CTAs running
GPGPU-Sim uArch: Shader 13 finished CTA #0 (11724,0), 2 CTAs running
GPGPU-Sim uArch: core: 13, cta: 0 initialized @(11725,0)
GPGPU-Sim uArch: core:  5, cta: 0 initialized @(11725,0)
GPGPU-Sim uArch: Shader 8 finished CTA #0 (11739,0), 2 CTAs running
GPGPU-Sim uArch: core:  8, cta: 0 initialized @(11740,0)
GPGPU-Sim uArch: Shader 2 finished CTA #2 (11745,0), 2 CTAs running
GPGPU-Sim uArch: core:  2, cta: 2 initialized @(11746,0)
GPGPU-Sim PTX: 6700000 instructions simulated : ctaid=(109,0,0) tid=(490,0,0)
GPGPU-Sim uArch: Shader 3 finished CTA #1 (11896,0), 2 CTAs running
GPGPU-Sim uArch: core:  3, cta: 1 initialized @(11897,0)
GPGPU-Sim PTX: 6800000 instructions simulated : ctaid=(86,0,0) tid=(243,0,0)
GPGPU-Sim uArch: cycles simulated: 12000  inst.: 6515371 (ipc=542.9) sim_rate=501182 (inst/sec) elapsed = 0:0:00:13 / Wed Jan 30 01:41:06 2019
GPGPU-Sim uArch: Shader 7 finished CTA #1 (12003,0), 2 CTAs running
GPGPU-Sim uArch: core:  7, cta: 1 initialized @(12004,0)
GPGPU-Sim PTX: 6900000 instructions simulated : ctaid=(95,0,0) tid=(368,0,0)
GPGPU-Sim uArch: Shader 4 finished CTA #1 (12173,0), 2 CTAs running
GPGPU-Sim uArch: core:  4, cta: 1 initialized @(12174,0)
GPGPU-Sim uArch: Shader 5 finished CTA #1 (12264,0), 2 CTAs running
GPGPU-Sim uArch: core:  5, cta: 1 initialized @(12265,0)
GPGPU-Sim uArch: Shader 6 finished CTA #1 (12266,0), 2 CTAs running
GPGPU-Sim uArch: core:  6, cta: 1 initialized @(12267,0)
GPGPU-Sim uArch: Shader 8 finished CTA #1 (12268,0), 2 CTAs running
GPGPU-Sim uArch: core:  8, cta: 1 initialized @(12269,0)
GPGPU-Sim uArch: Shader 9 finished CTA #1 (12270,0), 2 CTAs running
GPGPU-Sim uArch: core:  9, cta: 1 initialized @(12271,0)
GPGPU-Sim uArch: Shader 10 finished CTA #1 (12272,0), 2 CTAs running
GPGPU-Sim uArch: core: 10, cta: 1 initialized @(12273,0)
GPGPU-Sim uArch: Shader 11 finished CTA #1 (12274,0), 2 CTAs running
GPGPU-Sim uArch: core: 11, cta: 1 initialized @(12275,0)
GPGPU-Sim uArch: Shader 12 finished CTA #1 (12276,0), 2 CTAs running
GPGPU-Sim uArch: core: 12, cta: 1 initialized @(12277,0)
GPGPU-Sim uArch: Shader 13 finished CTA #1 (12278,0), 2 CTAs running
GPGPU-Sim uArch: core: 13, cta: 1 initialized @(12279,0)
GPGPU-Sim uArch: Shader 0 finished CTA #1 (12280,0), 2 CTAs running
GPGPU-Sim uArch: core:  0, cta: 1 initialized @(12281,0)
GPGPU-Sim PTX: 7000000 instructions simulated : ctaid=(94,0,0) tid=(383,0,0)
GPGPU-Sim PTX: 7100000 instructions simulated : ctaid=(93,0,0) tid=(11,0,0)
GPGPU-Sim PTX: 7200000 instructions simulated : ctaid=(106,0,0) tid=(475,0,0)
GPGPU-Sim uArch: Shader 4 finished CTA #2 (12898,0), 2 CTAs running
GPGPU-Sim uArch: core:  4, cta: 2 initialized @(12899,0)
GPGPU-Sim uArch: Shader 7 finished CTA #2 (12941,0), 2 CTAs running
GPGPU-Sim uArch: core:  7, cta: 2 initialized @(12942,0)
GPGPU-Sim uArch: Shader 12 finished CTA #2 (12991,0), 2 CTAs running
GPGPU-Sim uArch: core: 12, cta: 2 initialized @(12992,0)
GPGPU-Sim uArch: Shader 13 finished CTA #2 (12994,0), 2 CTAs running
GPGPU-Sim uArch: core: 13, cta: 2 initialized @(12995,0)
GPGPU-Sim uArch: cycles simulated: 13000  inst.: 6924455 (ipc=532.7) sim_rate=494603 (inst/sec) elapsed = 0:0:00:14 / Wed Jan 30 01:41:07 2019
GPGPU-Sim uArch: Shader 6 finished CTA #2 (13013,0), 2 CTAs running
GPGPU-Sim uArch: core:  6, cta: 2 initialized @(13014,0)
GPGPU-Sim uArch: Shader 8 finished CTA #2 (13015,0), 2 CTAs running
GPGPU-Sim uArch: core:  8, cta: 2 initialized @(13016,0)
GPGPU-Sim uArch: Shader 9 finished CTA #2 (13017,0), 2 CTAs running
GPGPU-Sim uArch: core:  9, cta: 2 initialized @(13018,0)
GPGPU-Sim uArch: Shader 10 finished CTA #2 (13020,0), 2 CTAs running
GPGPU-Sim uArch: core: 10, cta: 2 initialized @(13021,0)
GPGPU-Sim uArch: Shader 11 finished CTA #2 (13023,0), 2 CTAs running
GPGPU-Sim uArch: core: 11, cta: 2 initialized @(13024,0)
GPGPU-Sim uArch: Shader 5 finished CTA #2 (13039,0), 2 CTAs running
GPGPU-Sim uArch: core:  5, cta: 2 initialized @(13040,0)
GPGPU-Sim uArch: Shader 14 finished CTA #2 (13052,0), 2 CTAs running
GPGPU-Sim uArch: core: 14, cta: 2 initialized @(13053,0)
GPGPU-Sim uArch: Shader 0 finished CTA #2 (13055,0), 2 CTAs running
GPGPU-Sim uArch: core:  0, cta: 2 initialized @(13056,0)
GPGPU-Sim uArch: Shader 3 finished CTA #2 (13077,0), 2 CTAs running
GPGPU-Sim uArch: core:  3, cta: 2 initialized @(13078,0)
GPGPU-Sim PTX: 7300000 instructions simulated : ctaid=(123,0,0) tid=(495,0,0)
GPGPU-Sim PTX: 7400000 instructions simulated : ctaid=(132,0,0) tid=(358,0,0)
GPGPU-Sim PTX: 7500000 instructions simulated : ctaid=(120,0,0) tid=(255,0,0)
GPGPU-Sim uArch: Shader 1 finished CTA #0 (13494,0), 2 CTAs running
GPGPU-Sim uArch: core:  1, cta: 0 initialized @(13495,0)
GPGPU-Sim uArch: cycles simulated: 13500  inst.: 7222308 (ipc=535.0) sim_rate=481487 (inst/sec) elapsed = 0:0:00:15 / Wed Jan 30 01:41:08 2019
GPGPU-Sim PTX: 7600000 instructions simulated : ctaid=(96,0,0) tid=(119,0,0)
GPGPU-Sim uArch: Shader 2 finished CTA #0 (13623,0), 2 CTAs running
GPGPU-Sim uArch: core:  2, cta: 0 initialized @(13624,0)
GPGPU-Sim PTX: 7700000 instructions simulated : ctaid=(101,0,0) tid=(287,0,0)
GPGPU-Sim PTX: 7800000 instructions simulated : ctaid=(96,0,0) tid=(379,0,0)
GPGPU-Sim PTX: 7900000 instructions simulated : ctaid=(96,0,0) tid=(75,0,0)
GPGPU-Sim uArch: cycles simulated: 14000  inst.: 7596952 (ipc=542.6) sim_rate=474809 (inst/sec) elapsed = 0:0:00:16 / Wed Jan 30 01:41:09 2019
GPGPU-Sim PTX: 8000000 instructions simulated : ctaid=(95,0,0) tid=(65,0,0)
GPGPU-Sim PTX: 8100000 instructions simulated : ctaid=(94,0,0) tid=(111,0,0)
GPGPU-Sim PTX: 8200000 instructions simulated : ctaid=(119,0,0) tid=(88,0,0)
GPGPU-Sim PTX: 8300000 instructions simulated : ctaid=(93,0,0) tid=(231,0,0)
GPGPU-Sim uArch: Shader 4 finished CTA #0 (14540,0), 2 CTAs running
GPGPU-Sim PTX: 8400000 instructions simulated : ctaid=(102,0,0) tid=(313,0,0)
GPGPU-Sim uArch: core:  4, cta: 0 initialized @(14541,0)
GPGPU-Sim uArch: Shader 1 finished CTA #1 (14591,0), 2 CTAs running
GPGPU-Sim uArch: core:  1, cta: 1 initialized @(14592,0)
GPGPU-Sim PTX: 8500000 instructions simulated : ctaid=(100,0,0) tid=(375,0,0)
GPGPU-Sim uArch: Shader 2 finished CTA #1 (14682,0), 2 CTAs running
GPGPU-Sim uArch: core:  2, cta: 1 initialized @(14683,0)
GPGPU-Sim PTX: 8600000 instructions simulated : ctaid=(99,0,0) tid=(323,0,0)
GPGPU-Sim PTX: 8700000 instructions simulated : ctaid=(127,0,0) tid=(499,0,0)
GPGPU-Sim uArch: Shader 14 finished CTA #0 (14954,0), 2 CTAs running
GPGPU-Sim uArch: core: 14, cta: 0 initialized @(14955,0)
GPGPU-Sim uArch: cycles simulated: 15000  inst.: 8366904 (ipc=557.8) sim_rate=492170 (inst/sec) elapsed = 0:0:00:17 / Wed Jan 30 01:41:10 2019
GPGPU-Sim PTX: 8800000 instructions simulated : ctaid=(117,0,0) tid=(253,0,0)
GPGPU-Sim PTX: 8900000 instructions simulated : ctaid=(122,0,0) tid=(55,0,0)
GPGPU-Sim PTX: 9000000 instructions simulated : ctaid=(122,0,0) tid=(454,0,0)
GPGPU-Sim PTX: 9100000 instructions simulated : ctaid=(95,0,0) tid=(360,0,0)
GPGPU-Sim uArch: cycles simulated: 15500  inst.: 8749928 (ipc=564.5) sim_rate=486107 (inst/sec) elapsed = 0:0:00:18 / Wed Jan 30 01:41:11 2019
GPGPU-Sim PTX: 9200000 instructions simulated : ctaid=(107,0,0) tid=(343,0,0)
GPGPU-Sim uArch: Shader 7 finished CTA #0 (15608,0), 2 CTAs running
GPGPU-Sim uArch: core:  7, cta: 0 initialized @(15609,0)
GPGPU-Sim PTX: 9300000 instructions simulated : ctaid=(131,0,0) tid=(295,0,0)
GPGPU-Sim uArch: Shader 1 finished CTA #2 (15790,0), 2 CTAs running
GPGPU-Sim uArch: core:  1, cta: 2 initialized @(15791,0)
GPGPU-Sim PTX: 9400000 instructions simulated : ctaid=(104,0,0) tid=(0,0,0)
GPGPU-Sim uArch: Shader 3 finished CTA #0 (15864,0), 2 CTAs running
GPGPU-Sim uArch: core:  3, cta: 0 initialized @(15865,0)
GPGPU-Sim PTX: 9500000 instructions simulated : ctaid=(140,0,0) tid=(490,0,0)
GPGPU-Sim uArch: Shader 11 finished CTA #0 (15970,0), 2 CTAs running
GPGPU-Sim uArch: core: 11, cta: 0 initialized @(15971,0)
GPGPU-Sim uArch: Shader 13 finished CTA #0 (15994,0), 2 CTAs running
GPGPU-Sim uArch: core: 13, cta: 0 initialized @(15995,0)
GPGPU-Sim uArch: Shader 2 finished CTA #2 (16031,0), 2 CTAs running
GPGPU-Sim uArch: core:  2, cta: 2 initialized @(16032,0)
GPGPU-Sim PTX: 9600000 instructions simulated : ctaid=(104,0,0) tid=(171,0,0)
GPGPU-Sim uArch: Shader 12 finished CTA #0 (16181,0), 2 CTAs running
GPGPU-Sim uArch: core: 12, cta: 0 initialized @(16182,0)
GPGPU-Sim PTX: 9700000 instructions simulated : ctaid=(118,0,0) tid=(185,0,0)
GPGPU-Sim uArch: Shader 8 finished CTA #0 (16233,0), 2 CTAs running
GPGPU-Sim uArch: core:  8, cta: 0 initialized @(16234,0)
GPGPU-Sim uArch: Shader 0 finished CTA #0 (16299,0), 2 CTAs running
GPGPU-Sim uArch: core:  0, cta: 0 initialized @(16300,0)
GPGPU-Sim PTX: 9800000 instructions simulated : ctaid=(118,0,0) tid=(83,0,0)
GPGPU-Sim uArch: Shader 5 finished CTA #0 (16336,0), 2 CTAs running
GPGPU-Sim uArch: core:  5, cta: 0 initialized @(16337,0)
GPGPU-Sim uArch: Shader 10 finished CTA #0 (16352,0), 2 CTAs running
GPGPU-Sim uArch: core: 10, cta: 0 initialized @(16353,0)
GPGPU-Sim uArch: Shader 6 finished CTA #0 (16390,0), 2 CTAs running
GPGPU-Sim uArch: core:  6, cta: 0 initialized @(16391,0)
GPGPU-Sim uArch: Shader 14 finished CTA #1 (16411,0), 2 CTAs running
GPGPU-Sim uArch: core: 14, cta: 1 initialized @(16412,0)
GPGPU-Sim uArch: Shader 9 finished CTA #0 (16422,0), 2 CTAs running
GPGPU-Sim uArch: core:  9, cta: 0 initialized @(16423,0)
GPGPU-Sim PTX: 9900000 instructions simulated : ctaid=(139,0,0) tid=(30,0,0)
GPGPU-Sim uArch: cycles simulated: 16500  inst.: 9500558 (ipc=575.8) sim_rate=500029 (inst/sec) elapsed = 0:0:00:19 / Wed Jan 30 01:41:12 2019
GPGPU-Sim uArch: Shader 4 finished CTA #1 (16561,0), 2 CTAs running
GPGPU-Sim uArch: core:  4, cta: 1 initialized @(16562,0)
GPGPU-Sim PTX: 10000000 instructions simulated : ctaid=(116,0,0) tid=(291,0,0)
GPGPU-Sim uArch: Shader 7 finished CTA #1 (16649,0), 2 CTAs running
GPGPU-Sim uArch: core:  7, cta: 1 initialized @(16650,0)
GPGPU-Sim PTX: 10100000 instructions simulated : ctaid=(127,0,0) tid=(177,0,0)
GPGPU-Sim uArch: Shader 10 finished CTA #1 (16796,0), 2 CTAs running
GPGPU-Sim uArch: core: 10, cta: 1 initialized @(16797,0)
GPGPU-Sim uArch: Shader 6 finished CTA #1 (16846,0), 2 CTAs running
GPGPU-Sim uArch: core:  6, cta: 1 initialized @(16847,0)
GPGPU-Sim uArch: Shader 12 finished CTA #1 (16865,0), 2 CTAs running
GPGPU-Sim uArch: core: 12, cta: 1 initialized @(16866,0)
GPGPU-Sim PTX: 10200000 instructions simulated : ctaid=(158,0,0) tid=(286,0,0)
GPGPU-Sim uArch: Shader 3 finished CTA #1 (16934,0), 2 CTAs running
GPGPU-Sim uArch: core:  3, cta: 1 initialized @(16935,0)
GPGPU-Sim uArch: Shader 5 finished CTA #1 (16990,0), 2 CTAs running
GPGPU-Sim uArch: core:  5, cta: 1 initialized @(16991,0)
GPGPU-Sim uArch: cycles simulated: 17000  inst.: 9842503 (ipc=579.0) sim_rate=492125 (inst/sec) elapsed = 0:0:00:20 / Wed Jan 30 01:41:13 2019
GPGPU-Sim PTX: 10300000 instructions simulated : ctaid=(161,0,0) tid=(340,0,0)
GPGPU-Sim uArch: Shader 0 finished CTA #1 (17085,0), 2 CTAs running
GPGPU-Sim uArch: core:  0, cta: 1 initialized @(17086,0)
GPGPU-Sim uArch: Shader 11 finished CTA #1 (17113,0), 2 CTAs running
GPGPU-Sim uArch: core: 11, cta: 1 initialized @(17114,0)
GPGPU-Sim uArch: Shader 13 finished CTA #1 (17117,0), 2 CTAs running
GPGPU-Sim uArch: core: 13, cta: 1 initialized @(17118,0)
GPGPU-Sim uArch: Shader 8 finished CTA #1 (17124,0), 2 CTAs running
GPGPU-Sim uArch: core:  8, cta: 1 initialized @(17125,0)
GPGPU-Sim uArch: Shader 9 finished CTA #1 (17127,0), 2 CTAs running
GPGPU-Sim uArch: core:  9, cta: 1 initialized @(17128,0)
GPGPU-Sim PTX: 10400000 instructions simulated : ctaid=(153,0,0) tid=(174,0,0)
GPGPU-Sim PTX: 10500000 instructions simulated : ctaid=(163,0,0) tid=(316,0,0)
GPGPU-Sim uArch: Shader 14 finished CTA #2 (17308,0), 2 CTAs running
GPGPU-Sim uArch: core: 14, cta: 2 initialized @(17309,0)
GPGPU-Sim PTX: 10600000 instructions simulated : ctaid=(137,0,0) tid=(439,0,0)
GPGPU-Sim uArch: Shader 4 finished CTA #2 (17396,0), 2 CTAs running
GPGPU-Sim uArch: core:  4, cta: 2 initialized @(17397,0)
GPGPU-Sim uArch: Shader 11 finished CTA #2 (17437,0), 2 CTAs running
GPGPU-Sim uArch: core: 11, cta: 2 initialized @(17438,0)
GPGPU-Sim uArch: Shader 7 finished CTA #2 (17438,0), 2 CTAs running
GPGPU-Sim uArch: core:  7, cta: 2 initialized @(17439,0)
GPGPU-Sim uArch: Shader 8 finished CTA #2 (17445,0), 2 CTAs running
GPGPU-Sim uArch: core:  8, cta: 2 initialized @(17446,0)
GPGPU-Sim uArch: cycles simulated: 17500  inst.: 10211137 (ipc=583.5) sim_rate=486244 (inst/sec) elapsed = 0:0:00:21 / Wed Jan 30 01:41:14 2019
GPGPU-Sim PTX: 10700000 instructions simulated : ctaid=(145,0,0) tid=(391,0,0)
GPGPU-Sim uArch: Shader 5 finished CTA #2 (17613,0), 2 CTAs running
GPGPU-Sim uArch: core:  5, cta: 2 initialized @(17614,0)
GPGPU-Sim uArch: Shader 12 finished CTA #2 (17629,0), 2 CTAs running
GPGPU-Sim uArch: core: 12, cta: 2 initialized @(17630,0)
GPGPU-Sim uArch: Shader 0 finished CTA #2 (17631,0), 2 CTAs running
GPGPU-Sim uArch: core:  0, cta: 2 initialized @(17632,0)
GPGPU-Sim uArch: Shader 13 finished CTA #2 (17635,0), 2 CTAs running
GPGPU-Sim uArch: core: 13, cta: 2 initialized @(17636,0)
GPGPU-Sim uArch: Shader 1 finished CTA #0 (17638,0), 2 CTAs running
GPGPU-Sim uArch: core:  1, cta: 0 initialized @(17639,0)
GPGPU-Sim uArch: Shader 6 finished CTA #2 (17666,0), 2 CTAs running
GPGPU-Sim uArch: core:  6, cta: 2 initialized @(17667,0)
GPGPU-Sim PTX: 10800000 instructions simulated : ctaid=(139,0,0) tid=(475,0,0)
GPGPU-Sim PTX: 10900000 instructions simulated : ctaid=(147,0,0) tid=(423,0,0)
GPGPU-Sim PTX: 11000000 instructions simulated : ctaid=(159,0,0) tid=(465,0,0)
GPGPU-Sim uArch: Shader 3 finished CTA #2 (17992,0), 2 CTAs running
GPGPU-Sim uArch: core:  3, cta: 2 initialized @(17993,0)
GPGPU-Sim uArch: Shader 10 finished CTA #2 (18081,0), 2 CTAs running
GPGPU-Sim uArch: core: 10, cta: 2 initialized @(18082,0)
GPGPU-Sim PTX: 11100000 instructions simulated : ctaid=(153,0,0) tid=(473,0,0)
GPGPU-Sim uArch: Shader 9 finished CTA #2 (18089,0), 2 CTAs running
GPGPU-Sim uArch: core:  9, cta: 2 initialized @(18090,0)
GPGPU-Sim uArch: Shader 2 finished CTA #0 (18113,0), 2 CTAs running
GPGPU-Sim uArch: core:  2, cta: 0 initialized @(18114,0)
GPGPU-Sim PTX: 11200000 instructions simulated : ctaid=(173,0,0) tid=(335,0,0)
GPGPU-Sim PTX: 11300000 instructions simulated : ctaid=(141,0,0) tid=(493,0,0)
GPGPU-Sim PTX: 11400000 instructions simulated : ctaid=(141,0,0) tid=(233,0,0)
GPGPU-Sim uArch: cycles simulated: 18500  inst.: 10931070 (ipc=590.9) sim_rate=496866 (inst/sec) elapsed = 0:0:00:22 / Wed Jan 30 01:41:15 2019
GPGPU-Sim uArch: Shader 1 finished CTA #1 (18502,0), 2 CTAs running
GPGPU-Sim uArch: core:  1, cta: 1 initialized @(18503,0)
GPGPU-Sim PTX: 11500000 instructions simulated : ctaid=(146,0,0) tid=(61,0,0)
GPGPU-Sim uArch: Shader 4 finished CTA #0 (18674,0), 2 CTAs running
GPGPU-Sim uArch: core:  4, cta: 0 initialized @(18675,0)
GPGPU-Sim PTX: 11600000 instructions simulated : ctaid=(169,0,0) tid=(87,0,0)
GPGPU-Sim uArch: Shader 2 finished CTA #1 (18810,0), 2 CTAs running
GPGPU-Sim uArch: core:  2, cta: 1 initialized @(18811,0)
GPGPU-Sim PTX: 11700000 instructions simulated : ctaid=(144,0,0) tid=(381,0,0)
GPGPU-Sim PTX: 11800000 instructions simulated : ctaid=(150,0,0) tid=(111,0,0)
GPGPU-Sim uArch: Shader 14 finished CTA #0 (18966,0), 2 CTAs running
GPGPU-Sim uArch: core: 14, cta: 0 initialized @(18967,0)
GPGPU-Sim uArch: cycles simulated: 19000  inst.: 11311752 (ipc=595.4) sim_rate=491815 (inst/sec) elapsed = 0:0:00:23 / Wed Jan 30 01:41:16 2019
GPGPU-Sim PTX: 11900000 instructions simulated : ctaid=(162,0,0) tid=(432,0,0)
GPGPU-Sim PTX: 12000000 instructions simulated : ctaid=(142,0,0) tid=(53,0,0)
GPGPU-Sim uArch: Shader 7 finished CTA #0 (19289,0), 2 CTAs running
GPGPU-Sim uArch: core:  7, cta: 0 initialized @(19290,0)
GPGPU-Sim PTX: 12100000 instructions simulated : ctaid=(172,0,0) tid=(452,0,0)
GPGPU-Sim uArch: Shader 3 finished CTA #0 (19432,0), 2 CTAs running
GPGPU-Sim uArch: core:  3, cta: 0 initialized @(19433,0)
GPGPU-Sim PTX: 12200000 instructions simulated : ctaid=(186,0,0) tid=(125,0,0)
GPGPU-Sim uArch: cycles simulated: 19500  inst.: 11696531 (ipc=599.8) sim_rate=487355 (inst/sec) elapsed = 0:0:00:24 / Wed Jan 30 01:41:17 2019
GPGPU-Sim PTX: 12300000 instructions simulated : ctaid=(184,0,0) tid=(411,0,0)
GPGPU-Sim PTX: 12400000 instructions simulated : ctaid=(171,0,0) tid=(20,0,0)
GPGPU-Sim uArch: Shader 13 finished CTA #0 (19729,0), 2 CTAs running
GPGPU-Sim uArch: core: 13, cta: 0 initialized @(19730,0)
GPGPU-Sim uArch: Shader 11 finished CTA #0 (19803,0), 2 CTAs running
GPGPU-Sim uArch: core: 11, cta: 0 initialized @(19804,0)
GPGPU-Sim PTX: 12500000 instructions simulated : ctaid=(170,0,0) tid=(44,0,0)
GPGPU-Sim uArch: Shader 10 finished CTA #0 (19835,0), 2 CTAs running
GPGPU-Sim uArch: core: 10, cta: 0 initialized @(19836,0)
GPGPU-Sim uArch: Shader 1 finished CTA #2 (19902,0), 2 CTAs running
GPGPU-Sim uArch: core:  1, cta: 2 initialized @(19903,0)
GPGPU-Sim PTX: 12600000 instructions simulated : ctaid=(188,0,0) tid=(148,0,0)
GPGPU-Sim uArch: Shader 2 finished CTA #2 (20037,0), 2 CTAs running
GPGPU-Sim uArch: core:  2, cta: 2 initialized @(20038,0)
GPGPU-Sim PTX: 12700000 instructions simulated : ctaid=(156,0,0) tid=(291,0,0)
GPGPU-Sim PTX: 12800000 instructions simulated : ctaid=(154,0,0) tid=(301,0,0)
GPGPU-Sim uArch: Shader 12 finished CTA #0 (20257,0), 2 CTAs running
GPGPU-Sim uArch: core: 12, cta: 0 initialized @(20258,0)
GPGPU-Sim uArch: Shader 6 finished CTA #0 (20272,0), 2 CTAs running
GPGPU-Sim uArch: core:  6, cta: 0 initialized @(20273,0)
GPGPU-Sim uArch: Shader 8 finished CTA #0 (20290,0), 2 CTAs running
GPGPU-Sim uArch: core:  8, cta: 0 initialized @(20291,0)
GPGPU-Sim PTX: 12900000 instructions simulated : ctaid=(173,0,0) tid=(383,0,0)
GPGPU-Sim PTX: 13000000 instructions simulated : ctaid=(163,0,0) tid=(93,0,0)
GPGPU-Sim uArch: Shader 14 finished CTA #1 (20482,0), 2 CTAs running
GPGPU-Sim uArch: core: 14, cta: 1 initialized @(20483,0)
GPGPU-Sim uArch: cycles simulated: 20500  inst.: 12460445 (ipc=607.8) sim_rate=498417 (inst/sec) elapsed = 0:0:00:25 / Wed Jan 30 01:41:18 2019
GPGPU-Sim uArch: Shader 5 finished CTA #0 (20508,0), 2 CTAs running
GPGPU-Sim uArch: core:  5, cta: 0 initialized @(20509,0)
GPGPU-Sim uArch: Shader 0 finished CTA #0 (20526,0), 2 CTAs running
GPGPU-Sim uArch: core:  0, cta: 0 initialized @(20527,0)
GPGPU-Sim PTX: 13100000 instructions simulated : ctaid=(162,0,0) tid=(372,0,0)
GPGPU-Sim uArch: Shader 4 finished CTA #1 (20668,0), 2 CTAs running
GPGPU-Sim uArch: core:  4, cta: 1 initialized @(20669,0)
GPGPU-Sim PTX: 13200000 instructions simulated : ctaid=(159,0,0) tid=(435,0,0)
GPGPU-Sim uArch: Shader 7 finished CTA #1 (20770,0), 2 CTAs running
GPGPU-Sim uArch: core:  7, cta: 1 initialized @(20771,0)
GPGPU-Sim uArch: Shader 9 finished CTA #0 (20794,0), 2 CTAs running
GPGPU-Sim uArch: core:  9, cta: 0 initialized @(20795,0)
GPGPU-Sim PTX: 13300000 instructions simulated : ctaid=(176,0,0) tid=(137,0,0)
GPGPU-Sim PTX: 13400000 instructions simulated : ctaid=(168,0,0) tid=(146,0,0)
GPGPU-Sim uArch: cycles simulated: 21000  inst.: 12837733 (ipc=611.3) sim_rate=493758 (inst/sec) elapsed = 0:0:00:26 / Wed Jan 30 01:41:19 2019
GPGPU-Sim uArch: Shader 6 finished CTA #1 (21089,0), 2 CTAs running
GPGPU-Sim uArch: core:  6, cta: 1 initialized @(21090,0)
GPGPU-Sim PTX: 13500000 instructions simulated : ctaid=(202,0,0) tid=(482,0,0)
GPGPU-Sim uArch: Shader 8 finished CTA #1 (21214,0), 2 CTAs running
GPGPU-Sim uArch: core:  8, cta: 1 initialized @(21215,0)
GPGPU-Sim PTX: 13600000 instructions simulated : ctaid=(170,0,0) tid=(314,0,0)
GPGPU-Sim uArch: Shader 10 finished CTA #1 (21257,0), 2 CTAs running
GPGPU-Sim uArch: core: 10, cta: 1 initialized @(21258,0)
GPGPU-Sim uArch: Shader 11 finished CTA #1 (21258,0), 2 CTAs running
GPGPU-Sim uArch: core: 11, cta: 1 initialized @(21259,0)
GPGPU-Sim PTX: 13700000 instructions simulated : ctaid=(202,0,0) tid=(239,0,0)
GPGPU-Sim uArch: Shader 12 finished CTA #1 (21415,0), 2 CTAs running
GPGPU-Sim uArch: core: 12, cta: 1 initialized @(21416,0)
GPGPU-Sim uArch: Shader 3 finished CTA #1 (21456,0), 2 CTAs running
GPGPU-Sim uArch: core:  3, cta: 1 initialized @(21457,0)
GPGPU-Sim uArch: Shader 13 finished CTA #1 (21496,0), 2 CTAs running
GPGPU-Sim uArch: core: 13, cta: 1 initialized @(21497,0)
GPGPU-Sim uArch: cycles simulated: 21500  inst.: 13197403 (ipc=613.8) sim_rate=488792 (inst/sec) elapsed = 0:0:00:27 / Wed Jan 30 01:41:20 2019
GPGPU-Sim PTX: 13800000 instructions simulated : ctaid=(181,0,0) tid=(495,0,0)
GPGPU-Sim uArch: Shader 5 finished CTA #1 (21513,0), 2 CTAs running
GPGPU-Sim uArch: core:  5, cta: 1 initialized @(21514,0)
GPGPU-Sim uArch: Shader 0 finished CTA #1 (21561,0), 2 CTAs running
GPGPU-Sim uArch: core:  0, cta: 1 initialized @(21562,0)
GPGPU-Sim uArch: Shader 9 finished CTA #1 (21602,0), 2 CTAs running
GPGPU-Sim uArch: core:  9, cta: 1 initialized @(21603,0)
GPGPU-Sim uArch: Shader 14 finished CTA #2 (21634,0), 2 CTAs running
GPGPU-Sim uArch: core: 14, cta: 2 initialized @(21635,0)
GPGPU-Sim PTX: 13900000 instructions simulated : ctaid=(190,0,0) tid=(61,0,0)
GPGPU-Sim uArch: Shader 4 finished CTA #2 (21661,0), 2 CTAs running
GPGPU-Sim uArch: core:  4, cta: 2 initialized @(21662,0)
GPGPU-Sim uArch: Shader 1 finished CTA #0 (21717,0), 2 CTAs running
GPGPU-Sim uArch: core:  1, cta: 0 initialized @(21718,0)
GPGPU-Sim uArch: Shader 11 finished CTA #2 (21722,0), 2 CTAs running
GPGPU-Sim uArch: core: 11, cta: 2 initialized @(21723,0)
GPGPU-Sim PTX: 14000000 instructions simulated : ctaid=(187,0,0) tid=(108,0,0)
GPGPU-Sim uArch: Shader 6 finished CTA #2 (21808,0), 2 CTAs running
GPGPU-Sim uArch: core:  6, cta: 2 initialized @(21809,0)
GPGPU-Sim PTX: 14100000 instructions simulated : ctaid=(202,0,0) tid=(131,0,0)
GPGPU-Sim uArch: Shader 8 finished CTA #2 (21966,0), 2 CTAs running
GPGPU-Sim uArch: core:  8, cta: 2 initialized @(21967,0)
GPGPU-Sim uArch: Shader 5 finished CTA #2 (21974,0), 2 CTAs running
GPGPU-Sim uArch: core:  5, cta: 2 initialized @(21975,0)
GPGPU-Sim uArch: cycles simulated: 22000  inst.: 13575259 (ipc=617.1) sim_rate=484830 (inst/sec) elapsed = 0:0:00:28 / Wed Jan 30 01:41:21 2019
GPGPU-Sim PTX: 14200000 instructions simulated : ctaid=(204,0,0) tid=(204,0,0)
GPGPU-Sim uArch: Shader 7 finished CTA #2 (22105,0), 2 CTAs running
GPGPU-Sim uArch: core:  7, cta: 2 initialized @(22106,0)
GPGPU-Sim uArch: Shader 0 finished CTA #2 (22130,0), 2 CTAs running
GPGPU-Sim uArch: core:  0, cta: 2 initialized @(22131,0)
GPGPU-Sim PTX: 14300000 instructions simulated : ctaid=(206,0,0) tid=(187,0,0)
GPGPU-Sim uArch: Shader 12 finished CTA #2 (22235,0), 2 CTAs running
GPGPU-Sim uArch: core: 12, cta: 2 initialized @(22236,0)
GPGPU-Sim uArch: Shader 13 finished CTA #2 (22241,0), 2 CTAs running
GPGPU-Sim uArch: core: 13, cta: 2 initialized @(22242,0)
GPGPU-Sim PTX: 14400000 instructions simulated : ctaid=(209,0,0) tid=(157,0,0)
GPGPU-Sim uArch: Shader 3 finished CTA #2 (22280,0), 2 CTAs running
GPGPU-Sim uArch: core:  3, cta: 2 initialized @(22281,0)
GPGPU-Sim uArch: Shader 2 finished CTA #0 (22281,0), 2 CTAs running
GPGPU-Sim uArch: core:  2, cta: 0 initialized @(22282,0)
GPGPU-Sim uArch: Shader 10 finished CTA #2 (22295,0), 2 CTAs running
GPGPU-Sim uArch: core: 10, cta: 2 initialized @(22296,0)
GPGPU-Sim uArch: Shader 9 finished CTA #2 (22375,0), 2 CTAs running
GPGPU-Sim uArch: core:  9, cta: 2 initialized @(22376,0)
GPGPU-Sim PTX: 14500000 instructions simulated : ctaid=(221,0,0) tid=(103,0,0)
GPGPU-Sim uArch: cycles simulated: 22500  inst.: 13950825 (ipc=620.0) sim_rate=481062 (inst/sec) elapsed = 0:0:00:29 / Wed Jan 30 01:41:22 2019
GPGPU-Sim PTX: 14600000 instructions simulated : ctaid=(216,0,0) tid=(243,0,0)
GPGPU-Sim uArch: Shader 1 finished CTA #1 (22586,0), 2 CTAs running
GPGPU-Sim uArch: core:  1, cta: 1 initialized @(22587,0)
GPGPU-Sim PTX: 14700000 instructions simulated : ctaid=(226,0,0) tid=(216,0,0)
GPGPU-Sim PTX: 14800000 instructions simulated : ctaid=(218,0,0) tid=(75,0,0)
GPGPU-Sim PTX: 14900000 instructions simulated : ctaid=(204,0,0) tid=(235,0,0)
GPGPU-Sim uArch: cycles simulated: 23000  inst.: 14318327 (ipc=622.5) sim_rate=477277 (inst/sec) elapsed = 0:0:00:30 / Wed Jan 30 01:41:23 2019
GPGPU-Sim PTX: 15000000 instructions simulated : ctaid=(186,0,0) tid=(183,0,0)
GPGPU-Sim uArch: Shader 4 finished CTA #0 (23097,0), 2 CTAs running
GPGPU-Sim uArch: core:  4, cta: 0 initialized @(23098,0)
GPGPU-Sim uArch: Shader 2 finished CTA #1 (23098,0), 2 CTAs running
GPGPU-Sim uArch: core:  2, cta: 1 initialized @(23099,0)
GPGPU-Sim uArch: Shader 14 finished CTA #0 (23136,0), 2 CTAs running
GPGPU-Sim uArch: core: 14, cta: 0 initialized @(23137,0)
GPGPU-Sim PTX: 15100000 instructions simulated : ctaid=(204,0,0) tid=(429,0,0)
GPGPU-Sim PTX: 15200000 instructions simulated : ctaid=(229,0,0) tid=(153,0,0)
GPGPU-Sim uArch: Shader 7 finished CTA #0 (23291,0), 2 CTAs running
GPGPU-Sim uArch: core:  7, cta: 0 initialized @(23292,0)
GPGPU-Sim uArch: Shader 3 finished CTA #0 (23395,0), 2 CTAs running
GPGPU-Sim uArch: core:  3, cta: 0 initialized @(23396,0)
GPGPU-Sim PTX: 15300000 instructions simulated : ctaid=(231,0,0) tid=(417,0,0)
GPGPU-Sim uArch: Shader 13 finished CTA #0 (23457,0), 2 CTAs running
GPGPU-Sim uArch: core: 13, cta: 0 initialized @(23458,0)
GPGPU-Sim uArch: cycles simulated: 23500  inst.: 14700173 (ipc=625.5) sim_rate=474199 (inst/sec) elapsed = 0:0:00:31 / Wed Jan 30 01:41:24 2019
GPGPU-Sim PTX: 15400000 instructions simulated : ctaid=(209,0,0) tid=(14,0,0)
GPGPU-Sim PTX: 15500000 instructions simulated : ctaid=(231,0,0) tid=(354,0,0)
GPGPU-Sim PTX: 15600000 instructions simulated : ctaid=(204,0,0) tid=(425,0,0)
GPGPU-Sim PTX: 15700000 instructions simulated : ctaid=(198,0,0) tid=(13,0,0)
GPGPU-Sim uArch: Shader 10 finished CTA #0 (23978,0), 2 CTAs running
GPGPU-Sim uArch: core: 10, cta: 0 initialized @(23979,0)
GPGPU-Sim uArch: Shader 11 finished CTA #0 (24014,0), 2 CTAs running
GPGPU-Sim uArch: core: 11, cta: 0 initialized @(24015,0)
GPGPU-Sim PTX: 15800000 instructions simulated : ctaid=(199,0,0) tid=(239,0,0)
GPGPU-Sim uArch: Shader 12 finished CTA #0 (24106,0), 2 CTAs running
GPGPU-Sim uArch: core: 12, cta: 0 initialized @(24107,0)
GPGPU-Sim uArch: Shader 2 finished CTA #2 (24114,0), 2 CTAs running
GPGPU-Sim uArch: core:  2, cta: 2 initialized @(24115,0)
GPGPU-Sim uArch: Shader 1 finished CTA #2 (24153,0), 2 CTAs running
GPGPU-Sim uArch: core:  1, cta: 2 initialized @(24154,0)
GPGPU-Sim PTX: 15900000 instructions simulated : ctaid=(225,0,0) tid=(131,0,0)
GPGPU-Sim uArch: Shader 0 finished CTA #0 (24224,0), 2 CTAs running
GPGPU-Sim uArch: core:  0, cta: 0 initialized @(24225,0)
GPGPU-Sim PTX: 16000000 instructions simulated : ctaid=(234,0,0) tid=(151,0,0)
GPGPU-Sim uArch: Shader 6 finished CTA #0 (24303,0), 2 CTAs running
GPGPU-Sim uArch: core:  6, cta: 0 initialized @(24304,0)
GPGPU-Sim uArch: Shader 8 finished CTA #0 (24350,0), 2 CTAs running
GPGPU-Sim uArch: core:  8, cta: 0 initialized @(24351,0)
GPGPU-Sim uArch: Shader 5 finished CTA #0 (24353,0), 2 CTAs running
GPGPU-Sim uArch: core:  5, cta: 0 initialized @(24354,0)
GPGPU-Sim PTX: 16100000 instructions simulated : ctaid=(238,0,0) tid=(402,0,0)
GPGPU-Sim uArch: Shader 4 finished CTA #1 (24468,0), 2 CTAs running
GPGPU-Sim uArch: core:  4, cta: 1 initialized @(24469,0)
GPGPU-Sim uArch: cycles simulated: 24500  inst.: 15464595 (ipc=631.2) sim_rate=483268 (inst/sec) elapsed = 0:0:00:32 / Wed Jan 30 01:41:25 2019
GPGPU-Sim PTX: 16200000 instructions simulated : ctaid=(201,0,0) tid=(125,0,0)
GPGPU-Sim uArch: Shader 14 finished CTA #1 (24550,0), 2 CTAs running
GPGPU-Sim uArch: core: 14, cta: 1 initialized @(24551,0)
GPGPU-Sim PTX: 16300000 instructions simulated : ctaid=(215,0,0) tid=(108,0,0)
GPGPU-Sim uArch: Shader 9 finished CTA #0 (24737,0), 2 CTAs running
GPGPU-Sim uArch: core:  9, cta: 0 initialized @(24738,0)
GPGPU-Sim PTX: 16400000 instructions simulated : ctaid=(207,0,0) tid=(14,0,0)
GPGPU-Sim PTX: 16500000 instructions simulated : ctaid=(245,0,0) tid=(195,0,0)
GPGPU-Sim uArch: cycles simulated: 25000  inst.: 15841764 (ipc=633.7) sim_rate=480053 (inst/sec) elapsed = 0:0:00:33 / Wed Jan 30 01:41:26 2019
GPGPU-Sim uArch: Shader 7 finished CTA #1 (25007,0), 2 CTAs running
GPGPU-Sim uArch: core:  7, cta: 1 initialized @(25008,0)
GPGPU-Sim PTX: 16600000 instructions simulated : ctaid=(230,0,0) tid=(197,0,0)
GPGPU-Sim uArch: Shader 6 finished CTA #1 (25092,0), 2 CTAs running
GPGPU-Sim uArch: core:  6, cta: 1 initialized @(25093,0)
GPGPU-Sim PTX: 16700000 instructions simulated : ctaid=(212,0,0) tid=(295,0,0)
GPGPU-Sim uArch: Shader 8 finished CTA #1 (25198,0), 2 CTAs running
GPGPU-Sim uArch: core:  8, cta: 1 initialized @(25199,0)
GPGPU-Sim PTX: 16800000 instructions simulated : ctaid=(226,0,0) tid=(153,0,0)
GPGPU-Sim uArch: Shader 10 finished CTA #1 (25347,0), 2 CTAs running
GPGPU-Sim uArch: core: 10, cta: 1 initialized @(25348,0)
GPGPU-Sim uArch: Shader 11 finished CTA #1 (25348,0), 2 CTAs running
GPGPU-Sim uArch: core: 11, cta: 1 initialized @(25349,0)
GPGPU-Sim PTX: 16900000 instructions simulated : ctaid=(231,0,0) tid=(83,0,0)
GPGPU-Sim uArch: cycles simulated: 25500  inst.: 16218502 (ipc=636.0) sim_rate=477014 (inst/sec) elapsed = 0:0:00:34 / Wed Jan 30 01:41:27 2019
GPGPU-Sim PTX: 17000000 instructions simulated : ctaid=(235,0,0) tid=(30,0,0)
GPGPU-Sim uArch: Shader 13 finished CTA #1 (25574,0), 2 CTAs running
GPGPU-Sim uArch: core: 13, cta: 1 initialized @(25575,0)
GPGPU-Sim uArch: Shader 5 finished CTA #1 (25668,0), 2 CTAs running
GPGPU-Sim uArch: core:  5, cta: 1 initialized @(25669,0)
GPGPU-Sim PTX: 17100000 instructions simulated : ctaid=(215,0,0) tid=(297,0,0)
GPGPU-Sim uArch: Shader 0 finished CTA #1 (25763,0), 2 CTAs running
GPGPU-Sim uArch: core:  0, cta: 1 initialized @(25764,0)
GPGPU-Sim uArch: Shader 12 finished CTA #1 (25780,0), 2 CTAs running
GPGPU-Sim uArch: core: 12, cta: 1 initialized @(25781,0)
GPGPU-Sim PTX: 17200000 instructions simulated : ctaid=(229,0,0) tid=(174,0,0)
GPGPU-Sim uArch: Shader 3 finished CTA #1 (25844,0), 2 CTAs running
GPGPU-Sim uArch: core:  3, cta: 1 initialized @(25845,0)
GPGPU-Sim uArch: Shader 9 finished CTA #1 (25862,0), 2 CTAs running
GPGPU-Sim uArch: core:  9, cta: 1 initialized @(25863,0)
GPGPU-Sim uArch: Shader 14 finished CTA #2 (25904,0), 2 CTAs running
GPGPU-Sim uArch: core: 14, cta: 2 initialized @(25905,0)
GPGPU-Sim uArch: Shader 1 finished CTA #0 (25909,0), 2 CTAs running
GPGPU-Sim uArch: core:  1, cta: 0 initialized @(25910,0)
GPGPU-Sim uArch: Shader 4 finished CTA #2 (25932,0), 2 CTAs running
GPGPU-Sim uArch: core:  4, cta: 2 initialized @(25933,0)
GPGPU-Sim PTX: 17300000 instructions simulated : ctaid=(258,0,0) tid=(100,0,0)
GPGPU-Sim uArch: cycles simulated: 26000  inst.: 16590009 (ipc=638.1) sim_rate=474000 (inst/sec) elapsed = 0:0:00:35 / Wed Jan 30 01:41:28 2019
GPGPU-Sim uArch: Shader 11 finished CTA #2 (26038,0), 2 CTAs running
GPGPU-Sim uArch: core: 11, cta: 2 initialized @(26039,0)
GPGPU-Sim PTX: 17400000 instructions simulated : ctaid=(233,0,0) tid=(456,0,0)
GPGPU-Sim uArch: Shader 5 finished CTA #2 (26116,0), 2 CTAs running
GPGPU-Sim uArch: core:  5, cta: 2 initialized @(26117,0)
GPGPU-Sim PTX: 17500000 instructions simulated : ctaid=(233,0,0) tid=(248,0,0)
GPGPU-Sim uArch: Shader 7 finished CTA #2 (26243,0), 2 CTAs running
GPGPU-Sim uArch: core:  7, cta: 2 initialized @(26244,0)
GPGPU-Sim PTX: 17600000 instructions simulated : ctaid=(238,0,0) tid=(43,0,0)
GPGPU-Sim uArch: Shader 8 finished CTA #2 (26457,0), 2 CTAs running
GPGPU-Sim uArch: core:  8, cta: 2 initialized @(26458,0)
GPGPU-Sim PTX: 17700000 instructions simulated : ctaid=(255,0,0) tid=(161,0,0)
GPGPU-Sim uArch: Shader 6 finished CTA #2 (26496,0), 2 CTAs running
GPGPU-Sim uArch: core:  6, cta: 2 initialized @(26497,0)
GPGPU-Sim uArch: Shader 2 finished CTA #0 (26499,0), 2 CTAs running
GPGPU-Sim uArch: core:  2, cta: 0 initialized @(26500,0)
GPGPU-Sim uArch: cycles simulated: 26500  inst.: 16960440 (ipc=640.0) sim_rate=471123 (inst/sec) elapsed = 0:0:00:36 / Wed Jan 30 01:41:29 2019
GPGPU-Sim PTX: 17800000 instructions simulated : ctaid=(255,0,0) tid=(427,0,0)
GPGPU-Sim uArch: Shader 3 finished CTA #2 (26650,0), 2 CTAs running
GPGPU-Sim uArch: core:  3, cta: 2 initialized @(26651,0)
GPGPU-Sim PTX: 17900000 instructions simulated : ctaid=(240,0,0) tid=(241,0,0)
GPGPU-Sim uArch: Shader 10 finished CTA #2 (26769,0), 2 CTAs running
GPGPU-Sim uArch: core: 10, cta: 2 initialized @(26770,0)
GPGPU-Sim uArch: Shader 12 finished CTA #2 (26782,0), 2 CTAs running
GPGPU-Sim uArch: core: 12, cta: 2 initialized @(26783,0)
GPGPU-Sim uArch: Shader 13 finished CTA #2 (26790,0), 2 CTAs running
GPGPU-Sim uArch: core: 13, cta: 2 initialized @(26791,0)
GPGPU-Sim uArch: Shader 0 finished CTA #2 (26811,0), 2 CTAs running
GPGPU-Sim uArch: core:  0, cta: 2 initialized @(26812,0)
GPGPU-Sim PTX: 18000000 instructions simulated : ctaid=(250,0,0) tid=(449,0,0)
GPGPU-Sim uArch: Shader 9 finished CTA #2 (26879,0), 2 CTAs running
GPGPU-Sim uArch: core:  9, cta: 2 initialized @(26880,0)
GPGPU-Sim uArch: Shader 1 finished CTA #1 (26885,0), 2 CTAs running
GPGPU-Sim uArch: core:  1, cta: 1 initialized @(26886,0)
GPGPU-Sim PTX: 18100000 instructions simulated : ctaid=(267,0,0) tid=(486,0,0)
GPGPU-Sim uArch: cycles simulated: 27000  inst.: 17337619 (ipc=642.1) sim_rate=468584 (inst/sec) elapsed = 0:0:00:37 / Wed Jan 30 01:41:30 2019
GPGPU-Sim PTX: 18200000 instructions simulated : ctaid=(236,0,0) tid=(302,0,0)
GPGPU-Sim uArch: Shader 14 finished CTA #0 (27171,0), 2 CTAs running
GPGPU-Sim uArch: core: 14, cta: 0 initialized @(27172,0)
GPGPU-Sim PTX: 18300000 instructions simulated : ctaid=(273,0,0) tid=(14,0,0)
GPGPU-Sim uArch: Shader 2 finished CTA #1 (27270,0), 2 CTAs running
GPGPU-Sim uArch: core:  2, cta: 1 initialized @(27271,0)
GPGPU-Sim uArch: Shader 4 finished CTA #0 (27332,0), 2 CTAs running
GPGPU-Sim uArch: core:  4, cta: 0 initialized @(27333,0)
GPGPU-Sim PTX: 18400000 instructions simulated : ctaid=(263,0,0) tid=(259,0,0)
GPGPU-Sim uArch: Shader 3 finished CTA #0 (27419,0), 2 CTAs running
GPGPU-Sim uArch: core:  3, cta: 0 initialized @(27420,0)
GPGPU-Sim PTX: 18500000 instructions simulated : ctaid=(266,0,0) tid=(391,0,0)
GPGPU-Sim uArch: Shader 7 finished CTA #0 (27481,0), 2 CTAs running
GPGPU-Sim uArch: core:  7, cta: 0 initialized @(27482,0)
GPGPU-Sim uArch: Shader 13 finished CTA #0 (27531,0), 2 CTAs running
GPGPU-Sim uArch: core: 13, cta: 0 initialized @(27532,0)
GPGPU-Sim PTX: 18600000 instructions simulated : ctaid=(277,0,0) tid=(76,0,0)
GPGPU-Sim PTX: 18700000 instructions simulated : ctaid=(247,0,0) tid=(319,0,0)
GPGPU-Sim PTX: 18800000 instructions simulated : ctaid=(250,0,0) tid=(476,0,0)
GPGPU-Sim uArch: Shader 11 finished CTA #0 (27876,0), 2 CTAs running
GPGPU-Sim uArch: core: 11, cta: 0 initialized @(27877,0)
GPGPU-Sim uArch: Shader 12 finished CTA #0 (27896,0), 2 CTAs running
GPGPU-Sim uArch: core: 12, cta: 0 initialized @(27897,0)
GPGPU-Sim PTX: 18900000 instructions simulated : ctaid=(279,0,0) tid=(119,0,0)
GPGPU-Sim uArch: cycles simulated: 28000  inst.: 18092431 (ipc=646.2) sim_rate=476116 (inst/sec) elapsed = 0:0:00:38 / Wed Jan 30 01:41:31 2019
GPGPU-Sim uArch: Shader 10 finished CTA #0 (28039,0), 2 CTAs running
GPGPU-Sim uArch: core: 10, cta: 0 initialized @(28040,0)
GPGPU-Sim PTX: 19000000 instructions simulated : ctaid=(262,0,0) tid=(233,0,0)
GPGPU-Sim uArch: Shader 0 finished CTA #0 (28147,0), 2 CTAs running
GPGPU-Sim uArch: core:  0, cta: 0 initialized @(28148,0)
GPGPU-Sim uArch: Shader 6 finished CTA #0 (28208,0), 2 CTAs running
GPGPU-Sim uArch: core:  6, cta: 0 initialized @(28209,0)
GPGPU-Sim uArch: Shader 1 finished CTA #2 (28230,0), 2 CTAs running
GPGPU-Sim uArch: core:  1, cta: 2 initialized @(28231,0)
GPGPU-Sim PTX: 19100000 instructions simulated : ctaid=(244,0,0) tid=(23,0,0)
GPGPU-Sim uArch: Shader 8 finished CTA #0 (28240,0), 2 CTAs running
GPGPU-Sim uArch: core:  8, cta: 0 initialized @(28241,0)
GPGPU-Sim PTX: 19200000 instructions simulated : ctaid=(244,0,0) tid=(247,0,0)
GPGPU-Sim uArch: Shader 2 finished CTA #2 (28388,0), 2 CTAs running
GPGPU-Sim uArch: core:  2, cta: 2 initialized @(28389,0)
GPGPU-Sim uArch: Shader 5 finished CTA #0 (28418,0), 2 CTAs running
GPGPU-Sim uArch: core:  5, cta: 0 initialized @(28419,0)
GPGPU-Sim PTX: 19300000 instructions simulated : ctaid=(244,0,0) tid=(163,0,0)
GPGPU-Sim uArch: Shader 4 finished CTA #1 (28493,0), 2 CTAs running
GPGPU-Sim uArch: core:  4, cta: 1 initialized @(28494,0)
GPGPU-Sim uArch: cycles simulated: 28500  inst.: 18480952 (ipc=648.5) sim_rate=473870 (inst/sec) elapsed = 0:0:00:39 / Wed Jan 30 01:41:32 2019
GPGPU-Sim PTX: 19400000 instructions simulated : ctaid=(282,0,0) tid=(463,0,0)
GPGPU-Sim uArch: Shader 9 finished CTA #0 (28639,0), 2 CTAs running
GPGPU-Sim uArch: core:  9, cta: 0 initialized @(28640,0)
GPGPU-Sim PTX: 19500000 instructions simulated : ctaid=(279,0,0) tid=(145,0,0)
GPGPU-Sim uArch: Shader 14 finished CTA #1 (28742,0), 2 CTAs running
GPGPU-Sim uArch: core: 14, cta: 1 initialized @(28743,0)
GPGPU-Sim PTX: 19600000 instructions simulated : ctaid=(248,0,0) tid=(347,0,0)
GPGPU-Sim uArch: Shader 7 finished CTA #1 (28971,0), 2 CTAs running
GPGPU-Sim uArch: core:  7, cta: 1 initialized @(28972,0)
GPGPU-Sim PTX: 19700000 instructions simulated : ctaid=(262,0,0) tid=(449,0,0)
GPGPU-Sim uArch: cycles simulated: 29000  inst.: 18860837 (ipc=650.4) sim_rate=471520 (inst/sec) elapsed = 0:0:00:40 / Wed Jan 30 01:41:33 2019
GPGPU-Sim PTX: 19800000 instructions simulated : ctaid=(286,0,0) tid=(200,0,0)
GPGPU-Sim PTX: 19900000 instructions simulated : ctaid=(249,0,0) tid=(51,0,0)
GPGPU-Sim uArch: Shader 6 finished CTA #1 (29296,0), 2 CTAs running
GPGPU-Sim uArch: core:  6, cta: 1 initialized @(29297,0)
GPGPU-Sim uArch: Shader 8 finished CTA #1 (29349,0), 2 CTAs running
GPGPU-Sim uArch: core:  8, cta: 1 initialized @(29350,0)
GPGPU-Sim PTX: 20000000 instructions simulated : ctaid=(255,0,0) tid=(90,0,0)
GPGPU-Sim uArch: Shader 11 finished CTA #1 (29472,0), 2 CTAs running
GPGPU-Sim uArch: core: 11, cta: 1 initialized @(29473,0)
GPGPU-Sim PTX: 20100000 instructions simulated : ctaid=(262,0,0) tid=(191,0,0)
GPGPU-Sim uArch: cycles simulated: 29500  inst.: 19240421 (ipc=652.2) sim_rate=469278 (inst/sec) elapsed = 0:0:00:41 / Wed Jan 30 01:41:34 2019
GPGPU-Sim PTX: 20200000 instructions simulated : ctaid=(269,0,0) tid=(171,0,0)
GPGPU-Sim uArch: Shader 0 finished CTA #1 (29690,0), 2 CTAs running
GPGPU-Sim uArch: core:  0, cta: 1 initialized @(29691,0)
GPGPU-Sim uArch: Shader 10 finished CTA #1 (29724,0), 2 CTAs running
GPGPU-Sim uArch: core: 10, cta: 1 initialized @(29725,0)
GPGPU-Sim PTX: 20300000 instructions simulated : ctaid=(283,0,0) tid=(13,0,0)
GPGPU-Sim uArch: Shader 5 finished CTA #1 (29776,0), 2 CTAs running
GPGPU-Sim uArch: core:  5, cta: 1 initialized @(29777,0)
GPGPU-Sim uArch: Shader 13 finished CTA #1 (29793,0), 2 CTAs running
GPGPU-Sim uArch: core: 13, cta: 1 initialized @(29794,0)
GPGPU-Sim uArch: Shader 3 finished CTA #1 (29847,0), 2 CTAs running
GPGPU-Sim uArch: core:  3, cta: 1 initialized @(29848,0)
GPGPU-Sim PTX: 20400000 instructions simulated : ctaid=(279,0,0) tid=(371,0,0)
GPGPU-Sim uArch: Shader 1 finished CTA #0 (29944,0), 2 CTAs running
GPGPU-Sim uArch: core:  1, cta: 0 initialized @(29945,0)
GPGPU-Sim PTX: 20500000 instructions simulated : ctaid=(292,0,0) tid=(186,0,0)
GPGPU-Sim uArch: cycles simulated: 30000  inst.: 19625231 (ipc=654.2) sim_rate=467267 (inst/sec) elapsed = 0:0:00:42 / Wed Jan 30 01:41:35 2019
GPGPU-Sim uArch: Shader 12 finished CTA #1 (30002,0), 2 CTAs running
GPGPU-Sim uArch: core: 12, cta: 1 initialized @(30003,0)
GPGPU-Sim uArch: Shader 9 finished CTA #1 (30106,0), 2 CTAs running
GPGPU-Sim uArch: core:  9, cta: 1 initialized @(30107,0)
GPGPU-Sim uArch: Shader 14 finished CTA #2 (30122,0), 2 CTAs running
GPGPU-Sim uArch: core: 14, cta: 2 initialized @(30123,0)
GPGPU-Sim PTX: 20600000 instructions simulated : ctaid=(281,0,0) tid=(403,0,0)
GPGPU-Sim uArch: Shader 4 finished CTA #2 (30144,0), 2 CTAs running
GPGPU-Sim uArch: core:  4, cta: 2 initialized @(30145,0)
GPGPU-Sim PTX: 20700000 instructions simulated : ctaid=(294,0,0) tid=(301,0,0)
GPGPU-Sim uArch: Shader 5 finished CTA #2 (30379,0), 2 CTAs running
GPGPU-Sim uArch: core:  5, cta: 2 initialized @(30380,0)
GPGPU-Sim PTX: 20800000 instructions simulated : ctaid=(294,0,0) tid=(295,0,0)
GPGPU-Sim uArch: Shader 11 finished CTA #2 (30480,0), 2 CTAs running
GPGPU-Sim uArch: core: 11, cta: 2 initialized @(30481,0)
GPGPU-Sim PTX: 20900000 instructions simulated : ctaid=(299,0,0) tid=(10,0,0)
GPGPU-Sim uArch: Shader 2 finished CTA #0 (30517,0), 2 CTAs running
GPGPU-Sim uArch: core:  2, cta: 0 initialized @(30518,0)
GPGPU-Sim uArch: Shader 7 finished CTA #2 (30520,0), 2 CTAs running
GPGPU-Sim uArch: core:  7, cta: 2 initialized @(30521,0)
GPGPU-Sim PTX: 21000000 instructions simulated : ctaid=(307,0,0) tid=(470,0,0)
GPGPU-Sim uArch: Shader 6 finished CTA #2 (30736,0), 2 CTAs running
GPGPU-Sim uArch: core:  6, cta: 2 initialized @(30737,0)
GPGPU-Sim uArch: Shader 3 finished CTA #2 (30749,0), 2 CTAs running
GPGPU-Sim uArch: core:  3, cta: 2 initialized @(30750,0)
GPGPU-Sim PTX: 21100000 instructions simulated : ctaid=(286,0,0) tid=(61,0,0)
GPGPU-Sim uArch: Shader 13 finished CTA #2 (30821,0), 2 CTAs running
[...]
gpgpu_stall_shd_mem[g_mem_st][wb_icnt_rc] = 0
gpgpu_stall_shd_mem[g_mem_st][wb_rsrv_fail] = 0
gpgpu_stall_shd_mem[l_mem_ld][mshr_rc] = 0
gpgpu_stall_shd_mem[l_mem_ld][icnt_rc] = 0
gpgpu_stall_shd_mem[l_mem_ld][wb_icnt_rc] = 0
gpgpu_stall_shd_mem[l_mem_ld][wb_rsrv_fail] = 0
gpgpu_stall_shd_mem[l_mem_st][mshr_rc] = 0
gpgpu_stall_shd_mem[l_mem_st][icnt_rc] = 0
gpgpu_stall_shd_mem[l_mem_ld][wb_icnt_rc] = 0
gpgpu_stall_shd_mem[l_mem_ld][wb_rsrv_fail] = 0
gpu_reg_bank_conflict_stalls = 0
Warp Occupancy Distribution:
Stall:127416	W0_Idle:78753	W0_Scoreboard:378235	W1:7816	W2:7816	W3:0	W4:7816	W5:0	W6:0	W7:0	W8:7816	W9:0	W10:0	W11:0	W12:0	W13:0	W14:0	W15:0	W16:7816	W17:0	W18:0	W19:0	W20:0	W21:0	W22:0	W23:0	W24:0	W25:0	W26:0	W27:0	W28:0	W29:0	W30:0	W31:0	W32:2227490
traffic_breakdown_coretomem[CONST_ACC_R] = 120 {8:15,}
traffic_breakdown_coretomem[GLOBAL_ACC_R] = 250000 {8:31250,}
traffic_breakdown_coretomem[GLOBAL_ACC_W] = 625280 {40:15632,}
traffic_breakdown_coretomem[INST_ACC_R] = 600 {8:75,}
traffic_breakdown_memtocore[CONST_ACC_R] = 1080 {72:15,}
traffic_breakdown_memtocore[GLOBAL_ACC_R] = 4250000 {136:31250,}
traffic_breakdown_memtocore[GLOBAL_ACC_W] = 125056 {8:15632,}
traffic_breakdown_memtocore[INST_ACC_R] = 10200 {136:75,}
maxmrqlatency = 218 
maxdqlatency = 0 
maxmflatency = 1076 
averagemflatency = 274 
max_icnt2mem_latency = 841 
max_icnt2sh_latency = 95614 
mrq_lat_table:26008 	2176 	923 	709 	752 	458 	374 	34 	0 	0 	0 	0 	0 	0 	0 	0 	0 	0 	0 	0 	0 	0 	0 	0 	0 	0 	0 	0 	0 	0 	0 	0 	
dq_lat_table:0 	0 	0 	0 	0 	0 	0 	0 	0 	0 	0 	0 	0 	0 	0 	0 	0 	0 	0 	0 	0 	0 	0 	0 	0 	0 	0 	0 	0 	0 	0 	0 	
mf_lat_table:0 	0 	0 	0 	0 	0 	0 	12007 	32961 	1928 	1 	0 	0 	0 	0 	0 	0 	0 	0 	0 	0 	0 	0 	0 	0 	0 	0 	0 	0 	0 	0 	0 	
icnt2mem_lat_table:0 	0 	0 	29921 	5529 	4273 	3812 	1910 	856 	671 	0 	0 	0 	0 	0 	0 	0 	0 	0 	0 	0 	0 	0 	0 	
icnt2sh_lat_table:0 	0 	0 	15263 	12258 	3414 	329 	1 	0 	0 	0 	0 	720 	1030 	2872 	5618 	5392 	0 	0 	0 	0 	0 	0 	0 	
mf_lat_pw_table:0 	0 	0 	0 	0 	0 	0 	133 	46 	6 	0 	0 	0 	0 	0 	0 	0 	0 	0 	0 	0 	0 	0 	0 	0 	0 	0 	0 	0 	0 	0 	0 	
maximum concurrent accesses to same row:
dram[0]:        32        32        32        32        32        32        32        32        32        32        32        32        32        32        32        32 
dram[1]:        32        32        32        32        32        32        32        32        32        32        32        32        32        32        32        32 
dram[2]:        32        32        32        32        32        32        32        32        32        32        32        32        32        32        32        32 
dram[3]:        32        32        32        32        32        32        32        32        32        32        32        32        32        32        32        32 
dram[4]:        32        32        32        32        32        32        32        32        32        32        32        32        32        32        32        32 
dram[5]:        32        32        32        32        32        32        32        32        32        32        32        32        32        32        32        32 
maximum service time to same row:
dram[0]:      9475      9637      9943     10014     11000     11021     10765     10899     11627     11607     12197     12288     12800     12903      9209      9667 
dram[1]:      9476      9768      9958     10019     11025     11062     10791     10958     11616     11711     12173     12210     12805     12953      9210      9675 
dram[2]:      9478      9635      9986      9832     10975     11226     10811     11025     11693     11679     12257     12101     12856     13417      9228      9634 
dram[3]:      9479      9668      9987      9809     11006     11192     10810     11024     11667      9072     12319     12093     12856     13492      9315      9431 
dram[4]:      9494      9658      9969      9824     11078     11207     10834     11045     11696      9941     12300     12231     12868     13496      9673      9624 
dram[5]:      9568      9701      9966      9947     11057     11090     10910     11043     11592     11793     12247     12210     12860     13520      9675      9625 
average row accesses per activate:
dram[0]: 24.846153 32.000000 32.000000 32.000000 30.000000 30.000000 32.000000 32.000000 26.076923 25.692308 32.000000 32.000000 32.000000 32.000000 32.000000 32.000000 
dram[1]: 29.272728 32.000000 32.000000 32.000000 30.000000 30.000000 32.000000 32.000000 20.875000 22.266666 32.000000 32.000000 32.000000 32.000000 32.000000 32.000000 
dram[2]: 29.181818 32.000000 32.000000 32.000000 30.000000 30.181818 32.000000 32.000000 22.266666 27.750000 32.000000 32.000000 32.000000 32.000000 32.000000 32.000000 
dram[3]: 32.000000 32.000000 32.000000 32.000000 30.000000 30.181818 32.000000 32.000000 25.692308 26.307692 32.000000 32.000000 32.000000 32.000000 32.000000 32.000000 
dram[4]: 32.000000 32.000000 32.000000 32.000000 30.000000 30.181818 32.000000 32.000000 20.875000 22.799999 32.000000 32.000000 32.000000 32.000000 32.000000 32.000000 
dram[5]: 32.000000 32.000000 32.000000 32.000000 30.000000 30.181818 32.000000 32.000000 22.266666 22.799999 32.000000 32.000000 32.000000 32.000000 32.000000 32.000000 
average row locality = 31434/1040 = 30.225000
number of total memory accesses made:
dram[0]:         0         0         0         0         0         0         0         0         0         0         0         0         0         0         0         0 
dram[1]:         0         0         0         0         0         0         0         0         0         0         0         0         0         0         0         0 
dram[2]:         0         0         0         0         0         0         0         0         0         0         0         0         0         0         0         0 
dram[3]:         0         0         0         0         0         0         0         0         0         0         0         0         0         0         0         0 
dram[4]:         0         0         0         0         0         0         0         0         0         0         0         0         0         0         0         0 
dram[5]:         0         0         0         0         0         0         0         0         0         0         0         0         0         0         0         0 
total accesses: 0
min_bank_accesses = 0!
min_chip_accesses = 0!
number of total read accesses:
dram[0]:       323       320       320       320       330       330       352       352       325       324       320       320       320       320       320       320 
dram[1]:       322       320       320       320       330       330       352       352       324       324       320       320       320       320       320       320 
dram[2]:       321       320       320       320       330       332       352       352       324       324       320       320       320       320       320       320 
dram[3]:       320       320       320       320       330       332       352       352       324       324       320       320       320       320       320       320 
dram[4]:       320       320       320       320       330       332       352       352       324       324       320       320       320       320       320       320 
dram[5]:       320       320       320       320       330       332       352       352       324       324       320       320       320       320       320       320 
total reads: 31287
bank skew: 352/320 = 1.10
chip skew: 5216/5214 = 1.00
number of total write accesses:
dram[0]:         0         0         0         0         0         0         0         0        14        10         0         0         0         0         0         0 
dram[1]:         0         0         0         0         0         0         0         0        10        10         0         0         0         0         0         0 
dram[2]:         0         0         0         0         0         0         0         0        10         9         0         0         0         0         0         0 
dram[3]:         0         0         0         0         0         0         0         0        10        18         0         0         0         0         0         0 
dram[4]:         0         0         0         0         0         0         0         0        10        18         0         0         0         0         0         0 
dram[5]:         0         0         0         0         0         0         0         0        10        18         0         0         0         0         0         0 
total reads: 147
min_bank_accesses = 0!
chip skew: 28/19 = 1.47
average mf latency per bank:
dram[0]:        296       303       272       286       279       282       305       309      1049       904       282       290       289       293       302       307
dram[1]:        283       289       273       271       282       282       308       303       886       943       288       290       292       292       300       297
dram[2]:        289       291       272       270       284       283       311       317       879       886       289       291       292       293       302       293
dram[3]:        287       285       271       269       285       283       319       310       913      2525       293       292       294       291       303       298
dram[4]:        289       293       274       280       286       286       319       317       904      1908       306       300       298       292       304       303
dram[5]:        298       300       287       280       283       286       310       315       893      1623       291       300       295       292       306       304
maximum mf latency per bank:
dram[0]:        622       744       504       586       609       555       856       712       857       932       581       556       845       805       906       938
dram[1]:        564       585       515       492       884       635       909       655       843       865       638       575       887       933       878       955
dram[2]:        586       608       560       381       947       719       883       960       881       911       598       693       810       927       904       997
dram[3]:        597       553       510       369       781       656       972       869       875      1017       525       547       892       969       994       969
dram[4]:        693       594       562       437       831       712       752       961      1018       846       663       561       887       834      1076       896
dram[5]:        682       581       589       464       781       655       729       897       979       815       533       559       932       852      1023       958
Memory Partition 0: 
Cache L2_bank_000:
MSHR contents

Cache L2_bank_001:
MSHR contents

In Dram Latency Queue (total = 0): 
DRAM[0]: 16 bks, busW=4 BL=8 CL=12, tRRD=2 tCCD=6, tRCD=12 tRAS=28 tRP=12 tRC=40
n_cmd=126211 n_nop=115421 n_act=173 n_pre=157 n_req=5240 n_rd=10432 n_write=28 bw_util=0.1658
n_activity=56305 dram_eff=0.3715
bk0: 646a 124316i bk1: 640a 124033i bk2: 640a 124225i bk3: 640a 123918i bk4: 660a 124242i bk5: 660a 124063i bk6: 704a 123857i bk7: 704a 123427i bk8: 650a 124045i bk9: 648a 123983i bk10: 640a 124158i bk11: 640a 123776i bk12: 640a 124107i bk13: 640a 123891i bk14: 640a 124296i bk15: 640a 123864i 
dram_util_bins: 0 0 0 0 0 0 0 0 0 0
dram_eff_bins: 0 0 0 0 0 0 0 0 0 0
mrqq: max=16 avg=0.140249
Memory Partition 1: 
Cache L2_bank_002:
MSHR contents

Cache L2_bank_003:
MSHR contents

In Dram Latency Queue (total = 0): 
DRAM[1]: 16 bks, busW=4 BL=8 CL=12, tRRD=2 tCCD=6, tRCD=12 tRAS=28 tRP=12 tRC=40
n_cmd=126211 n_nop=115423 n_act=176 n_pre=160 n_req=5234 n_rd=10428 n_write=24 bw_util=0.1656
n_activity=56852 dram_eff=0.3677
bk0: 644a 124384i bk1: 640a 124122i bk2: 640a 124238i bk3: 640a 124044i bk4: 660a 124319i bk5: 660a 124136i bk6: 704a 123947i bk7: 704a 123550i bk8: 648a 124099i bk9: 648a 123838i bk10: 640a 123905i bk11: 640a 123544i bk12: 640a 124141i bk13: 640a 123951i bk14: 640a 124334i bk15: 640a 123967i 
dram_util_bins: 0 0 0 0 0 0 0 0 0 0
dram_eff_bins: 0 0 0 0 0 0 0 0 0 0
mrqq: max=16 avg=0.121487
Memory Partition 2: 
Cache L2_bank_004:
MSHR contents

Cache L2_bank_005:
MSHR contents

In Dram Latency Queue (total = 0): 
DRAM[2]: 16 bks, busW=4 BL=8 CL=12, tRRD=2 tCCD=6, tRCD=12 tRAS=28 tRP=12 tRC=40
n_cmd=126211 n_nop=115431 n_act=172 n_pre=156 n_req=5234 n_rd=10430 n_write=22 bw_util=0.1656
n_activity=56321 dram_eff=0.3712
bk0: 642a 124380i bk1: 640a 124120i bk2: 640a 124305i bk3: 640a 124104i bk4: 660a 124311i bk5: 664a 124099i bk6: 704a 123977i bk7: 704a 123435i bk8: 648a 123984i bk9: 648a 123657i bk10: 640a 123850i bk11: 640a 123531i bk12: 640a 123843i bk13: 640a 124023i bk14: 640a 124200i bk15: 640a 123906i 
dram_util_bins: 0 0 0 0 0 0 0 0 0 0
dram_eff_bins: 0 0 0 0 0 0 0 0 0 0
mrqq: max=16 avg=0.159669
Memory Partition 3: 
Cache L2_bank_006:
MSHR contents

Cache L2_bank_007:
MSHR contents

In Dram Latency Queue (total = 0): 
DRAM[3]: 16 bks, busW=4 BL=8 CL=12, tRRD=2 tCCD=6, tRCD=12 tRAS=28 tRP=12 tRC=40
n_cmd=126211 n_nop=115427 n_act=170 n_pre=154 n_req=5242 n_rd=10428 n_write=32 bw_util=0.1658
n_activity=56319 dram_eff=0.3715
bk0: 640a 124383i bk1: 640a 124138i bk2: 640a 124210i bk3: 640a 124150i bk4: 660a 124315i bk5: 664a 124016i bk6: 704a 123989i bk7: 704a 123508i bk8: 648a 124038i bk9: 648a 123807i bk10: 640a 123888i bk11: 640a 123433i bk12: 640a 124082i bk13: 640a 124045i bk14: 640a 124292i bk15: 640a 123854i 
dram_util_bins: 0 0 0 0 0 0 0 0 0 0
dram_eff_bins: 0 0 0 0 0 0 0 0 0 0
mrqq: max=16 avg=0.133301
Memory Partition 4: 
Cache L2_bank_008:
MSHR contents

Cache L2_bank_009:
MSHR contents

In Dram Latency Queue (total = 0): 
DRAM[4]: 16 bks, busW=4 BL=8 CL=12, tRRD=2 tCCD=6, tRCD=12 tRAS=28 tRP=12 tRC=40
n_cmd=126211 n_nop=115417 n_act=175 n_pre=159 n_req=5242 n_rd=10428 n_write=32 bw_util=0.1658
n_activity=56105 dram_eff=0.3729
bk0: 640a 124387i bk1: 640a 124110i bk2: 640a 124114i bk3: 640a 124011i bk4: 660a 124100i bk5: 664a 123847i bk6: 704a 123903i bk7: 704a 123528i bk8: 648a 124044i bk9: 648a 123745i bk10: 640a 123782i bk11: 640a 123439i bk12: 640a 123887i bk13: 640a 123853i bk14: 640a 124147i bk15: 640a 123850i 
dram_util_bins: 0 0 0 0 0 0 0 0 0 0
dram_eff_bins: 0 0 0 0 0 0 0 0 0 0
mrqq: max=16 avg=0.195007
Memory Partition 5: 
Cache L2_bank_010:
MSHR contents

Cache L2_bank_011:
MSHR contents

In Dram Latency Queue (total = 0): 
DRAM[5]: 16 bks, busW=4 BL=8 CL=12, tRRD=2 tCCD=6, tRCD=12 tRAS=28 tRP=12 tRC=40
n_cmd=126211 n_nop=115419 n_act=174 n_pre=158 n_req=5242 n_rd=10428 n_write=32 bw_util=0.1658
n_activity=56326 dram_eff=0.3714
bk0: 640a 124360i bk1: 640a 124067i bk2: 640a 124014i bk3: 640a 123947i bk4: 660a 124290i bk5: 664a 124044i bk6: 704a 123851i bk7: 704a 123583i bk8: 648a 124054i bk9: 648a 123573i bk10: 640a 123880i bk11: 640a 123473i bk12: 640a 123930i bk13: 640a 123930i bk14: 640a 124161i bk15: 640a 123892i 
dram_util_bins: 0 0 0 0 0 0 0 0 0 0
dram_eff_bins: 0 0 0 0 0 0 0 0 0 0
mrqq: max=16 avg=0.173471

========= L2 cache stats =========
L2_cache_bank[0]: Access = 3945, Miss = 2610, Miss_rate = 0.662, Pending_hits = 18, Reservation_fails = 667
L2_cache_bank[1]: Access = 3628, Miss = 2606, Miss_rate = 0.718, Pending_hits = 6, Reservation_fails = 292
L2_cache_bank[2]: Access = 3658, Miss = 2608, Miss_rate = 0.713, Pending_hits = 10, Reservation_fails = 398
L2_cache_bank[3]: Access = 3628, Miss = 2606, Miss_rate = 0.718, Pending_hits = 6, Reservation_fails = 247
L2_cache_bank[4]: Access = 3643, Miss = 2607, Miss_rate = 0.716, Pending_hits = 6, Reservation_fails = 358
L2_cache_bank[5]: Access = 3630, Miss = 2608, Miss_rate = 0.718, Pending_hits = 6, Reservation_fails = 359
L2_cache_bank[6]: Access = 3628, Miss = 2606, Miss_rate = 0.718, Pending_hits = 6, Reservation_fails = 227
L2_cache_bank[7]: Access = 4652, Miss = 2608, Miss_rate = 0.561, Pending_hits = 12, Reservation_fails = 560
L2_cache_bank[8]: Access = 3628, Miss = 2606, Miss_rate = 0.718, Pending_hits = 6, Reservation_fails = 322
L2_cache_bank[9]: Access = 4652, Miss = 2608, Miss_rate = 0.561, Pending_hits = 12, Reservation_fails = 604
L2_cache_bank[10]: Access = 3628, Miss = 2606, Miss_rate = 0.718, Pending_hits = 6, Reservation_fails = 325
L2_cache_bank[11]: Access = 4652, Miss = 2608, Miss_rate = 0.561, Pending_hits = 12, Reservation_fails = 581
L2_total_cache_accesses = 46972
L2_total_cache_misses = 31287
L2_total_cache_miss_rate = 0.6661
L2_total_cache_pending_hits = 106
L2_total_cache_reservation_fails = 4940
L2_total_cache_breakdown:
	L2_cache_stats_breakdown[GLOBAL_ACC_R][MISS] = 31250
	L2_cache_stats_breakdown[GLOBAL_ACC_R][RESERVATION_FAIL] = 797
	L2_cache_stats_breakdown[CONST_ACC_R][HIT] = 11
	L2_cache_stats_breakdown[CONST_ACC_R][HIT_RESERVED] = 3
	L2_cache_stats_breakdown[CONST_ACC_R][MISS] = 1
	L2_cache_stats_breakdown[CONST_ACC_R][RESERVATION_FAIL] = 102
	L2_cache_stats_breakdown[GLOBAL_ACC_W][HIT] = 15508
	L2_cache_stats_breakdown[GLOBAL_ACC_W][HIT_RESERVED] = 93
	L2_cache_stats_breakdown[GLOBAL_ACC_W][MISS] = 31
	L2_cache_stats_breakdown[GLOBAL_ACC_W][RESERVATION_FAIL] = 3689
	L2_cache_stats_breakdown[INST_ACC_R][HIT] = 60
	L2_cache_stats_breakdown[INST_ACC_R][HIT_RESERVED] = 10
	L2_cache_stats_breakdown[INST_ACC_R][MISS] = 5
	L2_cache_stats_breakdown[INST_ACC_R][RESERVATION_FAIL] = 352
L2_cache_data_port_util = 0.014
L2_cache_fill_port_util = 0.109

icnt_total_pkts_mem_to_simt=172302
icnt_total_pkts_simt_to_mem=62604
LD_mem_lat_dist  0 0 0 0 0 0 0 0 0 0 0 0 0 0 0 0 0 0 0 0 0 0 0 0 0 0 0
ST_mem_lat_dist  0 0 0 0 0 0 0 0 0 0 0 0 0 0 0 0 0 0 0 0 0 0 0 0 0 0 0
----------------------------Interconnect-DETAILS--------------------------------
Class 0:
Packet latency average = 23.8343
	minimum = 6
	maximum = 473
Network latency average = 16.9145
	minimum = 6
	maximum = 319
Slowest packet = 3097
Flit latency average = 14.6417
	minimum = 6
	maximum = 318
Slowest flit = 23443
Fragmentation average = 0.0076535
	minimum = 0
	maximum = 122
Injected packet rate average = 0.0363898
	minimum = 0.0321916 (at node 9)
	maximum = 0.0486535 (at node 22)
Accepted packet rate average = 0.0363898
	minimum = 0.0321916 (at node 9)
	maximum = 0.0486535 (at node 22)
Injected flit rate average = 0.0909922
	minimum = 0.0429012 (at node 9)
	maximum = 0.15759 (at node 22)
Accepted flit rate average= 0.0909922
	minimum = 0.0486535 (at node 16)
	maximum = 0.122889 (at node 2)
Injected packet length average = 2.50049
Accepted packet length average = 2.50049
Total in-flight flits = 0 (0 measured)
====== Overall Traffic Statistics ======
====== Traffic class 0 ======
Packet latency average = 23.8343 (1 samples)
	minimum = 6 (1 samples)
	maximum = 473 (1 samples)
Network latency average = 16.9145 (1 samples)
	minimum = 6 (1 samples)
	maximum = 319 (1 samples)
Flit latency average = 14.6417 (1 samples)
	minimum = 6 (1 samples)
	maximum = 318 (1 samples)
Fragmentation average = 0.0076535 (1 samples)
	minimum = 0 (1 samples)
	maximum = 122 (1 samples)
Injected packet rate average = 0.0363898 (1 samples)
	minimum = 0.0321916 (1 samples)
	maximum = 0.0486535 (1 samples)
Accepted packet rate average = 0.0363898 (1 samples)
	minimum = 0.0321916 (1 samples)
	maximum = 0.0486535 (1 samples)
Injected flit rate average = 0.0909922 (1 samples)
	minimum = 0.0429012 (1 samples)
	maximum = 0.15759 (1 samples)
Accepted flit rate average = 0.0909922 (1 samples)
	minimum = 0.0486535 (1 samples)
	maximum = 0.122889 (1 samples)
Injected packet size average = 2.50049 (1 samples)
Accepted packet size average = 2.50049 (1 samples)
Hops average = 1 (1 samples)
----------------------------END-of-Interconnect-DETAILS-------------------------


gpgpu_simulation_time = 0 days, 0 hrs, 2 min, 44 sec (164 sec)
gpgpu_simulation_rate = 417817 (inst/sec)
gpgpu_simulation_rate = 583 (cycle/sec)
163.835358 s
Copying data from device to host...0.000384 s
Verifying results...TEST PASSED

