

        *** GPGPU-Sim Simulator Version 3.2.2  [build 0] ***


GPGPU-Sim PTX: simulation mode 0 (can change with PTX_SIM_MODE_FUNC environment variable:
               1=functional simulation only, 0=detailed performance simulator)
GPGPU-Sim: Configuration options:

-network_mode                           1 # Interconnection network mode
-inter_config_file   config_fermi_islip.icnt # Interconnection network config file
-gpgpu_ptx_use_cuobjdump                    1 # Use cuobjdump to extract ptx and sass from binaries
-gpgpu_experimental_lib_support                    0 # Try to extract code from cuda libraries [Broken because of unknown cudaGetExportTable]
-gpgpu_ptx_convert_to_ptxplus                    0 # Convert SASS (native ISA) to ptxplus and run ptxplus
-gpgpu_ptx_force_max_capability                   20 # Force maximum compute capability
-gpgpu_ptx_inst_debug_to_file                    0 # Dump executed instructions' debug information to file
-gpgpu_ptx_inst_debug_file       inst_debug.txt # Executed instructions' debug output file
-gpgpu_ptx_inst_debug_thread_uid                    1 # Thread UID for executed instructions' debug output
-gpgpu_simd_model                       1 # 1 = post-dominator
-gpgpu_shader_core_pipeline              1536:32 # shader core pipeline config, i.e., {<nthread>:<warpsize>}
-gpgpu_tex_cache:l1  4:128:24,L:R:m:N:L,F:128:4,128:2 # per-shader L1 texture cache  (READ-ONLY) config  {<nsets>:<bsize>:<assoc>,<rep>:<wr>:<alloc>:<wr_alloc>,<mshr>:<N>:<merge>,<mq>:<rf>}
-gpgpu_const_cache:l1 64:64:2,L:R:f:N:L,A:2:32,4 # per-shader L1 constant memory cache  (READ-ONLY) config  {<nsets>:<bsize>:<assoc>,<rep>:<wr>:<alloc>:<wr_alloc>,<mshr>:<N>:<merge>,<mq>} 
-gpgpu_cache:il1     4:128:4,L:R:f:N:L,A:2:32,4 # shader L1 instruction cache config  {<nsets>:<bsize>:<assoc>,<rep>:<wr>:<alloc>:<wr_alloc>,<mshr>:<N>:<merge>,<mq>} 
-gpgpu_cache:dl1     32:128:4,L:L:m:N:H,A:32:8,8 # per-shader L1 data cache config  {<nsets>:<bsize>:<assoc>,<rep>:<wr>:<alloc>:<wr_alloc>,<mshr>:<N>:<merge>,<mq> | none}
-gpgpu_cache:dl1PrefL1                 none # per-shader L1 data cache config  {<nsets>:<bsize>:<assoc>,<rep>:<wr>:<alloc>:<wr_alloc>,<mshr>:<N>:<merge>,<mq> | none}
-gpgpu_cache:dl1PreShared                 none # per-shader L1 data cache config  {<nsets>:<bsize>:<assoc>,<rep>:<wr>:<alloc>:<wr_alloc>,<mshr>:<N>:<merge>,<mq> | none}
-gmem_skip_L1D                          0 # global memory access skip L1D cache (implements -Xptxas -dlcm=cg, default=no skip)
-gpgpu_perfect_mem                      0 # enable perfect memory mode (no cache miss)
-n_regfile_gating_group                    4 # group of lanes that should be read/written together)
-gpgpu_clock_gated_reg_file                    0 # enable clock gated reg file for power calculations
-gpgpu_clock_gated_lanes                    0 # enable clock gated lanes for power calculations
-gpgpu_shader_registers                32768 # Number of registers per shader core. Limits number of concurrent CTAs. (default 8192)
-gpgpu_shader_cta                       8 # Maximum number of concurrent CTAs in shader (default 8)
-gpgpu_num_cta_barriers                   16 # Maximum number of named barriers per CTA (default 16)
-gpgpu_n_clusters                      15 # number of processing clusters
-gpgpu_n_cores_per_cluster                    1 # number of simd cores per cluster
-gpgpu_n_cluster_ejection_buffer_size                    8 # number of packets in ejection buffer
-gpgpu_n_ldst_response_buffer_size                    2 # number of response packets in ld/st unit ejection buffer
-gpgpu_shmem_size                   16384 # Size of shared memory per shader core (default 16kB)
-gpgpu_shmem_size                   49152 # Size of shared memory per shader core (default 16kB)
-gpgpu_shmem_size_PrefL1                16384 # Size of shared memory per shader core (default 16kB)
-gpgpu_shmem_size_PrefShared                16384 # Size of shared memory per shader core (default 16kB)
-gpgpu_shmem_num_banks                   32 # Number of banks in the shared memory in each shader core (default 16)
-gpgpu_shmem_limited_broadcast                    0 # Limit shared memory to do one broadcast per cycle (default on)
-gpgpu_shmem_warp_parts                    1 # Number of portions a warp is divided into for shared memory bank conflict check 
-gpgpu_warpdistro_shader                   -1 # Specify which shader core to collect the warp size distribution from
-gpgpu_warp_issue_shader                    0 # Specify which shader core to collect the warp issue distribution from
-gpgpu_local_mem_map                    1 # Mapping from local memory space address to simulated GPU physical address space (default = enabled)
-gpgpu_num_reg_banks                   16 # Number of register banks (default = 8)
-gpgpu_reg_bank_use_warp_id                    0 # Use warp ID in mapping registers to banks (default = off)
-gpgpu_operand_collector_num_units_sp                    6 # number of collector units (default = 4)
-gpgpu_operand_collector_num_units_sfu                    8 # number of collector units (default = 4)
-gpgpu_operand_collector_num_units_mem                    2 # number of collector units (default = 2)
-gpgpu_operand_collector_num_units_gen                    0 # number of collector units (default = 0)
-gpgpu_operand_collector_num_in_ports_sp                    2 # number of collector unit in ports (default = 1)
-gpgpu_operand_collector_num_in_ports_sfu                    1 # number of collector unit in ports (default = 1)
-gpgpu_operand_collector_num_in_ports_mem                    1 # number of collector unit in ports (default = 1)
-gpgpu_operand_collector_num_in_ports_gen                    0 # number of collector unit in ports (default = 0)
-gpgpu_operand_collector_num_out_ports_sp                    2 # number of collector unit in ports (default = 1)
-gpgpu_operand_collector_num_out_ports_sfu                    1 # number of collector unit in ports (default = 1)
-gpgpu_operand_collector_num_out_ports_mem                    1 # number of collector unit in ports (default = 1)
-gpgpu_operand_collector_num_out_ports_gen                    0 # number of collector unit in ports (default = 0)
-gpgpu_coalesce_arch                   13 # Coalescing arch (default = 13, anything else is off for now)
-gpgpu_num_sched_per_core                    2 # Number of warp schedulers per core
-gpgpu_max_insn_issue_per_warp                    1 # Max number of instructions that can be issued per warp in one cycle by scheduler
-gpgpu_simt_core_sim_order                    1 # Select the simulation order of cores in a cluster (0=Fix, 1=Round-Robin)
-gpgpu_pipeline_widths        2,1,1,2,1,1,2 # Pipeline widths ID_OC_SP,ID_OC_SFU,ID_OC_MEM,OC_EX_SP,OC_EX_SFU,OC_EX_MEM,EX_WB
-gpgpu_num_sp_units                     2 # Number of SP units (default=1)
-gpgpu_num_sfu_units                    1 # Number of SF units (default=1)
-gpgpu_num_mem_units                    1 # Number if ldst units (default=1) WARNING: not hooked up to anything
-gpgpu_scheduler                      gto # Scheduler configuration: < lrr | gto | two_level_active > If two_level_active:<num_active_warps>:<inner_prioritization>:<outer_prioritization>For complete list of prioritization values see shader.h enum scheduler_prioritization_typeDefault: gto
-gpgpu_dram_scheduler                    1 # 0 = fifo, 1 = FR-FCFS (defaul)
-gpgpu_dram_partition_queues              8:8:8:8 # i2$:$2d:d2$:$2i
-l2_ideal                               0 # Use a ideal L2 cache that always hit
-gpgpu_cache:dl2     64:128:8,L:B:m:W:L,A:32:4,4:0,32 # unified banked L2 data cache config  {<nsets>:<bsize>:<assoc>,<rep>:<wr>:<alloc>:<wr_alloc>,<mshr>:<N>:<merge>,<mq>}
-gpgpu_cache:dl2_texture_only                    0 # L2 cache used for texture only
-gpgpu_n_mem                            6 # number of memory modules (e.g. memory controllers) in gpu
-gpgpu_n_sub_partition_per_mchannel                    2 # number of memory subpartition in each memory module
-gpgpu_n_mem_per_ctrlr                    2 # number of memory chips per memory controller
-gpgpu_memlatency_stat                   14 # track and display latency statistics 0x2 enables MC, 0x4 enables queue logs
-gpgpu_frfcfs_dram_sched_queue_size                   16 # 0 = unlimited (default); # entries per chip
-gpgpu_dram_return_queue_size                  116 # 0 = unlimited (default); # entries per chip
-gpgpu_dram_buswidth                    4 # default = 4 bytes (8 bytes per cycle at DDR)
-gpgpu_dram_burst_length                    8 # Burst length of each DRAM request (default = 4 data bus cycle)
-dram_data_command_freq_ratio                    4 # Frequency ratio between DRAM data bus and command bus (default = 2 times, i.e. DDR)
-gpgpu_dram_timing_opt nbk=16:CCD=2:RRD=6:RCD=12:RAS=28:RP=12:RC=40: CL=12:WL=4:CDLR=5:WR=12:nbkgrp=4:CCDL=3:RTPL=2 # DRAM timing parameters = {nbk:tCCD:tRRD:tRCD:tRAS:tRP:tRC:CL:WL:tCDLR:tWR:nbkgrp:tCCDL:tRTPL}
-rop_latency                          120 # ROP queue latency (default 85)
-dram_latency                         100 # DRAM latency (default 30)
-gpgpu_mem_addr_mapping dramid@8;00000000.00000000.00000000.00000000.0000RRRR.RRRRRRRR.BBBCCCCB.CCSSSSSS # mapping memory address to dram model {dramid@<start bit>;<memory address map>}
-gpgpu_mem_addr_test                    0 # run sweep test to check address mapping for aliased address
-gpgpu_mem_address_mask                    1 # 0 = old addressing mask, 1 = new addressing mask, 2 = new add. mask + flipped bank sel and chip sel bits
-gpuwattch_xml_file  gpuwattch_gtx480.xml # GPUWattch XML file
-power_simulation_enabled                    1 # Turn on power simulator (1=On, 0=Off)
-power_per_cycle_dump                    0 # Dump detailed power output each cycle
-power_trace_enabled                    0 # produce a file for the power trace (1=On, 0=Off)
-power_trace_zlevel                     6 # Compression level of the power trace output log (0=no comp, 9=highest)
-steady_power_levels_enabled                    0 # produce a file for the steady power levels (1=On, 0=Off)
-steady_state_definition                  8:4 # allowed deviation:number of samples
-gpgpu_max_cycle                        0 # terminates gpu simulation early (0 = no limit)
-gpgpu_max_insn                         0 # terminates gpu simulation early (0 = no limit)
-gpgpu_max_cta                          0 # terminates gpu simulation early (0 = no limit)
-gpgpu_runtime_stat                   500 # display runtime statistics such as dram utilization {<freq>:<flag>}
-liveness_message_freq                    1 # Minimum number of seconds between simulation liveness messages (0 = always print)
-gpgpu_flush_l1_cache                    0 # Flush L1 cache at the end of each kernel call
-gpgpu_flush_l2_cache                    0 # Flush L2 cache at the end of each kernel call
-gpgpu_deadlock_detect                    1 # Stop the simulation at deadlock (1=on (default), 0=off)
-gpgpu_ptx_instruction_classification                    0 # if enabled will classify ptx instruction types per kernel (Max 255 kernels now)
-gpgpu_ptx_sim_mode                     0 # Select between Performance (default) or Functional simulation (1)
-gpgpu_clock_domains 700.0:700.0:700.0:924.0 # Clock Domain Frequencies in MhZ {<Core Clock>:<ICNT Clock>:<L2 Clock>:<DRAM Clock>}
-gpgpu_max_concurrent_kernel                    8 # maximum kernels that can run concurrently on GPU
-gpgpu_cflog_interval                    0 # Interval between each snapshot in control flow logger
-visualizer_enabled                     0 # Turn on visualizer output (1=On, 0=Off)
-visualizer_outputfile                 NULL # Specifies the output log file for visualizer
-visualizer_zlevel                      6 # Compression level of the visualizer output log (0=no comp, 9=highest)
-trace_enabled                          0 # Turn on traces
-trace_components                    none # comma seperated list of traces to enable. Complete list found in trace_streams.tup. Default none
-trace_sampling_core                    0 # The core which is printed using CORE_DPRINTF. Default 0
-trace_sampling_memory_partition                   -1 # The memory partition which is printed using MEMPART_DPRINTF. Default -1 (i.e. all)
-enable_ptx_file_line_stats                    1 # Turn on PTX source line statistic profiling. (1 = On)
-ptx_line_stats_filename gpgpu_inst_stats.txt # Output file for PTX source line statistics.
-save_embedded_ptx                      0 # saves ptx files embedded in binary as <n>.ptx
-keep                                   0 # keep intermediate files created by GPGPU-Sim when interfacing with external programs
-gpgpu_ptx_save_converted_ptxplus                    0 # Saved converted ptxplus to a file
-ptx_opcode_latency_int         4,13,4,5,145 # Opcode latencies for integers <ADD,MAX,MUL,MAD,DIV>Default 1,1,19,25,145
-ptx_opcode_latency_fp          4,13,4,5,39 # Opcode latencies for single precision floating points <ADD,MAX,MUL,MAD,DIV>Default 1,1,1,1,30
-ptx_opcode_latency_dp         8,19,8,8,330 # Opcode latencies for double precision floating points <ADD,MAX,MUL,MAD,DIV>Default 8,8,8,8,335
-ptx_opcode_initiation_int            1,2,2,1,8 # Opcode initiation intervals for integers <ADD,MAX,MUL,MAD,DIV>Default 1,1,4,4,32
-ptx_opcode_initiation_fp            1,2,1,1,4 # Opcode initiation intervals for single precision floating points <ADD,MAX,MUL,MAD,DIV>Default 1,1,1,1,5
-ptx_opcode_initiation_dp         8,16,8,8,130 # Opcode initiation intervals for double precision floating points <ADD,MAX,MUL,MAD,DIV>Default 8,8,8,8,130
DRAM Timing Options:
nbk                                    16 # number of banks
CCD                                     2 # column to column delay
RRD                                     6 # minimal delay between activation of rows in different banks
RCD                                    12 # row to column delay
RAS                                    28 # time needed to activate row
RP                                     12 # time needed to precharge (deactivate) row
RC                                     40 # row cycle time
CDLR                                    5 # switching from write to read (changes tWTR)
WR                                     12 # last data-in to row precharge
CL                                     12 # CAS latency
WL                                      4 # Write latency
nbkgrp                                  4 # number of bank groups
CCDL                                    3 # column to column delay between accesses to different bank groups
RTPL                                    2 # read to precharge delay between accesses to different bank groups
Total number of memory sub partition = 12
addr_dec_mask[CHIP]  = 0000000000000000 	high:64 low:0
addr_dec_mask[BK]    = 000000000000e100 	high:16 low:8
addr_dec_mask[ROW]   = 000000000fff0000 	high:28 low:16
addr_dec_mask[COL]   = 0000000000001eff 	high:13 low:0
addr_dec_mask[BURST] = 000000000000003f 	high:6 low:0
sub_partition_id_mask = 0000000000000100
GPGPU-Sim uArch: clock freqs: 700000000.000000:700000000.000000:700000000.000000:924000000.000000
GPGPU-Sim uArch: clock periods: 0.00000000142857142857:0.00000000142857142857:0.00000000142857142857:0.00000000108225108225
*** Initializing Memory Statistics ***
GPGPU-Sim uArch: interconnect node map (shaderID+MemID to icntID)
GPGPU-Sim uArch: Memory nodes ID start from index: 15
GPGPU-Sim uArch:    0   1   2   3   4
GPGPU-Sim uArch:    5   6   7   8   9
GPGPU-Sim uArch:   10  11  12  13  14
GPGPU-Sim uArch:   15  16  17  18  19
GPGPU-Sim uArch:   20  21  22  23  24
GPGPU-Sim uArch:   25  26
GPGPU-Sim uArch: interconnect node reverse map (icntID to shaderID+MemID)
GPGPU-Sim uArch: Memory nodes start from ID: 15
GPGPU-Sim uArch:    0   1   2   3   4
GPGPU-Sim uArch:    5   6   7   8   9
GPGPU-Sim uArch:   10  11  12  13  14
GPGPU-Sim uArch:   15  16  17  18  19
GPGPU-Sim uArch:   20  21  22  23  24
GPGPU-Sim uArch:   25  26
54b49a66ec689fd0cd446b339a5fba87  /root/CS217_GPU/Lab1Optimized/reduction
GPGPU-Sim uArch: performance model initialization complete.
GPGPU-Sim PTX: __cudaRegisterFatBinary, fat_cubin_handle = 1, filename=main.cu
self exe links to: /root/CS217_GPU/Lab1Optimized/reduction
Running md5sum using "md5sum /root/CS217_GPU/Lab1Optimized/reduction "
Running cuobjdump using "$CUDA_INSTALL_PATH/bin/cuobjdump -ptx -elf -sass /root/CS217_GPU/Lab1Optimized/reduction > _cuobjdump_complete_output_2D0kzT"
Parsing file _cuobjdump_complete_output_2D0kzT
######### cuobjdump parser ########
## Adding new section ELF
Adding arch: sm_10
Adding identifier: main.cu
## Adding new section PTX
Adding ptx filename: _cuobjdump_1.ptx
Adding arch: sm_10
Adding identifier: main.cu
## Adding new section ELF
Adding arch: sm_10
Adding identifier: support.cu
## Adding new section PTX
Adding ptx filename: _cuobjdump_2.ptx
Adding arch: sm_10
Adding identifier: support.cu
Done parsing!!!
GPGPU-Sim PTX: __cudaRegisterFunction _Z9reductionPfS_j : hostFun 0x0x400f10, fat_cubin_handle = 1
GPGPU-Sim PTX: allocating shared region for "__cuda___cuda_local_var_16314_59_non_const_partialSumVector20" from 0x0 to 0x1000 (shared memory space)
GPGPU-Sim PTX: instruction assembly for function '_Z9reductionPfS_j'...   done.
GPGPU-Sim PTX: finding reconvergence points for '_Z9reductionPfS_j'...
GPGPU-Sim PTX: Finding dominators for '_Z9reductionPfS_j'...
GPGPU-Sim PTX: Finding immediate dominators for '_Z9reductionPfS_j'...
GPGPU-Sim PTX: Finding postdominators for '_Z9reductionPfS_j'...
GPGPU-Sim PTX: Finding immediate postdominators for '_Z9reductionPfS_j'...
GPGPU-Sim PTX: pre-decoding instructions for '_Z9reductionPfS_j'...
GPGPU-Sim PTX: reconvergence points for _Z9reductionPfS_j...
GPGPU-Sim PTX:  1 (potential) branch divergence @  PC=0x048 (_1.ptx:70) @%p1 bra $Lt_0_3842;
GPGPU-Sim PTX:    immediate post dominator      @  PC=0x0b0 (_1.ptx:87) add.u32 %r8, %r3, %r1;
GPGPU-Sim PTX:  2 (potential) branch divergence @  PC=0x098 (_1.ptx:81) bra.uni $Lt_0_3586;
GPGPU-Sim PTX:    immediate post dominator      @  PC=0x0b0 (_1.ptx:87) add.u32 %r8, %r3, %r1;
GPGPU-Sim PTX:  3 (potential) branch divergence @  PC=0x0e0 (_1.ptx:95) @%p2 bra $Lt_0_4354;
GPGPU-Sim PTX:    immediate post dominator      @  PC=0x150 (_1.ptx:114) mov.s32 %r13, %r3;
GPGPU-Sim PTX:  4 (potential) branch divergence @  PC=0x138 (_1.ptx:107) bra.uni $Lt_0_4098;
GPGPU-Sim PTX:    immediate post dominator      @  PC=0x150 (_1.ptx:114) mov.s32 %r13, %r3;
GPGPU-Sim PTX:  5 (potential) branch divergence @  PC=0x168 (_1.ptx:117) @%p3 bra $Lt_0_4610;
GPGPU-Sim PTX:    immediate post dominator      @  PC=0x1e8 (_1.ptx:140) ld.shared.f32 %f8, [__cuda___cuda_local_var_16314_59_non_const_partialSumVector20+0];
GPGPU-Sim PTX:  6 (potential) branch divergence @  PC=0x180 (_1.ptx:122) @%p4 bra $Lt_0_5378;
GPGPU-Sim PTX:    immediate post dominator      @  PC=0x1c8 (_1.ptx:134) shr.u32 %r13, %r13, 1;
GPGPU-Sim PTX:  7 (potential) branch divergence @  PC=0x1e0 (_1.ptx:137) @%p5 bra $Lt_0_5122;
GPGPU-Sim PTX:    immediate post dominator      @  PC=0x1e8 (_1.ptx:140) ld.shared.f32 %f8, [__cuda___cuda_local_var_16314_59_non_const_partialSumVector20+0];
GPGPU-Sim PTX: ... end of reconvergence points for _Z9reductionPfS_j
GPGPU-Sim PTX: ... done pre-decoding instructions for '_Z9reductionPfS_j'.
GPGPU-Sim PTX: finished parsing EMBEDDED .ptx file _1.ptx
Adding _cuobjdump_1.ptx with cubin handle 1
GPGPU-Sim PTX: extracting embedded .ptx to temporary file "_ptx_xVRn6w"
Running: cat _ptx_xVRn6w | sed 's/.version 1.5/.version 1.4/' | sed 's/, texmode_independent//' | sed 's/\(\.extern \.const\[1\] .b8 \w\+\)\[\]/\1\[1\]/' | sed 's/const\[.\]/const\[0\]/g' > _ptx2_2N8rDa
GPGPU-Sim PTX: generating ptxinfo using "$CUDA_INSTALL_PATH/bin/ptxas --gpu-name=sm_20 -v _ptx2_2N8rDa --output-file  /dev/null 2> _ptx_xVRn6winfo"
GPGPU-Sim PTX: Kernel '_Z9reductionPfS_j' : regs=10, lmem=0, smem=4096, cmem=52
GPGPU-Sim PTX: removing ptxinfo using "rm -f _ptx_xVRn6w _ptx2_2N8rDa _ptx_xVRn6winfo"
GPGPU-Sim PTX: loading globals with explicit initializers... 
GPGPU-Sim PTX: finished loading globals (0 bytes total).
GPGPU-Sim PTX: loading constants with explicit initializers...  done.
GPGPU-Sim PTX: __cudaRegisterFatBinary, fat_cubin_handle = 2, filename=support.cu

Setting up the problem...0.028719 s
    Input size = 1000000
Allocating device variables...0.000027 s
Copying data from host to device...0.106671 s
Launching kernel...
GPGPU-Sim PTX: cudaLaunch for 0x0x400f10 (mode=performance simulation) on stream 0
GPGPU-Sim PTX: pushing kernel '_Z9reductionPfS_j' to stream 0, gridDim= (977,1,1) blockDim = (512,1,1) 
kernel '_Z9reductionPfS_j' transfer to GPU hardware scheduler
GPGPU-Sim uArch: Shader 1 bind to kernel 1 '_Z9reductionPfS_j'
GPGPU-Sim uArch: CTA/core = 3, limited by: threads
GPGPU-Sim uArch: core:  1, cta: 0 initialized @(1,0)
GPGPU-Sim uArch: Shader 2 bind to kernel 1 '_Z9reductionPfS_j'
GPGPU-Sim uArch: core:  2, cta: 0 initialized @(1,0)
GPGPU-Sim uArch: Shader 3 bind to kernel 1 '_Z9reductionPfS_j'
GPGPU-Sim uArch: core:  3, cta: 0 initialized @(1,0)
GPGPU-Sim uArch: Shader 4 bind to kernel 1 '_Z9reductionPfS_j'
GPGPU-Sim uArch: core:  4, cta: 0 initialized @(1,0)
GPGPU-Sim uArch: Shader 5 bind to kernel 1 '_Z9reductionPfS_j'
GPGPU-Sim uArch: core:  5, cta: 0 initialized @(1,0)
GPGPU-Sim uArch: Shader 6 bind to kernel 1 '_Z9reductionPfS_j'
GPGPU-Sim uArch: core:  6, cta: 0 initialized @(1,0)
GPGPU-Sim uArch: Shader 7 bind to kernel 1 '_Z9reductionPfS_j'
GPGPU-Sim uArch: core:  7, cta: 0 initialized @(1,0)
GPGPU-Sim uArch: Shader 8 bind to kernel 1 '_Z9reductionPfS_j'
GPGPU-Sim uArch: core:  8, cta: 0 initialized @(1,0)
GPGPU-Sim uArch: Shader 9 bind to kernel 1 '_Z9reductionPfS_j'
GPGPU-Sim uArch: core:  9, cta: 0 initialized @(1,0)
GPGPU-Sim uArch: Shader 10 bind to kernel 1 '_Z9reductionPfS_j'
GPGPU-Sim uArch: core: 10, cta: 0 initialized @(1,0)
GPGPU-Sim uArch: Shader 11 bind to kernel 1 '_Z9reductionPfS_j'
GPGPU-Sim uArch: core: 11, cta: 0 initialized @(1,0)
GPGPU-Sim uArch: Shader 12 bind to kernel 1 '_Z9reductionPfS_j'
GPGPU-Sim uArch: core: 12, cta: 0 initialized @(1,0)
GPGPU-Sim uArch: Shader 13 bind to kernel 1 '_Z9reductionPfS_j'
GPGPU-Sim uArch: core: 13, cta: 0 initialized @(1,0)
GPGPU-Sim uArch: Shader 14 bind to kernel 1 '_Z9reductionPfS_j'
GPGPU-Sim uArch: core: 14, cta: 0 initialized @(1,0)
GPGPU-Sim uArch: Shader 0 bind to kernel 1 '_Z9reductionPfS_j'
GPGPU-Sim uArch: core:  0, cta: 0 initialized @(1,0)
GPGPU-Sim uArch: core:  1, cta: 1 initialized @(2,0)
GPGPU-Sim uArch: core:  2, cta: 1 initialized @(2,0)
GPGPU-Sim uArch: core:  3, cta: 1 initialized @(2,0)
GPGPU-Sim uArch: core:  4, cta: 1 initialized @(2,0)
GPGPU-Sim uArch: core:  5, cta: 1 initialized @(2,0)
GPGPU-Sim uArch: core:  6, cta: 1 initialized @(2,0)
GPGPU-Sim uArch: core:  7, cta: 1 initialized @(2,0)
GPGPU-Sim uArch: core:  8, cta: 1 initialized @(2,0)
GPGPU-Sim uArch: core:  9, cta: 1 initialized @(2,0)
GPGPU-Sim uArch: core: 10, cta: 1 initialized @(2,0)
GPGPU-Sim uArch: core: 11, cta: 1 initialized @(2,0)
GPGPU-Sim uArch: core: 12, cta: 1 initialized @(2,0)
GPGPU-Sim uArch: core: 13, cta: 1 initialized @(2,0)
GPGPU-Sim uArch: core: 14, cta: 1 initialized @(2,0)
GPGPU-Sim uArch: core:  0, cta: 1 initialized @(2,0)
GPGPU-Sim uArch: core:  1, cta: 2 initialized @(3,0)
GPGPU-Sim uArch: core:  2, cta: 2 initialized @(3,0)
GPGPU-Sim uArch: core:  3, cta: 2 initialized @(3,0)
GPGPU-Sim uArch: core:  4, cta: 2 initialized @(3,0)
GPGPU-Sim uArch: core:  5, cta: 2 initialized @(3,0)
GPGPU-Sim uArch: core:  6, cta: 2 initialized @(3,0)
GPGPU-Sim uArch: core:  7, cta: 2 initialized @(3,0)
GPGPU-Sim uArch: core:  8, cta: 2 initialized @(3,0)
GPGPU-Sim uArch: core:  9, cta: 2 initialized @(3,0)
GPGPU-Sim uArch: core: 10, cta: 2 initialized @(3,0)
GPGPU-Sim uArch: core: 11, cta: 2 initialized @(3,0)
GPGPU-Sim uArch: core: 12, cta: 2 initialized @(3,0)
GPGPU-Sim uArch: core: 13, cta: 2 initialized @(3,0)
GPGPU-Sim uArch: core: 14, cta: 2 initialized @(3,0)
GPGPU-Sim uArch: core:  0, cta: 2 initialized @(3,0)
GPGPU-Sim PTX: 100000 instructions simulated : ctaid=(31,0,0) tid=(31,0,0)
GPGPU-Sim uArch: cycles simulated: 500  inst.: 144032 (ipc=288.1) sim_rate=144032 (inst/sec) elapsed = 0:0:00:01 / Tue Jan 29 09:31:21 2019
GPGPU-Sim PTX: 200000 instructions simulated : ctaid=(39,0,0) tid=(159,0,0)
GPGPU-Sim PTX: 300000 instructions simulated : ctaid=(13,0,0) tid=(511,0,0)
GPGPU-Sim PTX: 400000 instructions simulated : ctaid=(21,0,0) tid=(127,0,0)
GPGPU-Sim PTX: 500000 instructions simulated : ctaid=(5,0,0) tid=(383,0,0)
GPGPU-Sim PTX: 600000 instructions simulated : ctaid=(28,0,0) tid=(95,0,0)
GPGPU-Sim uArch: cycles simulated: 2000  inst.: 629984 (ipc=315.0) sim_rate=314992 (inst/sec) elapsed = 0:0:00:02 / Tue Jan 29 09:31:23 2019
GPGPU-Sim PTX: 700000 instructions simulated : ctaid=(43,0,0) tid=(159,0,0)
GPGPU-Sim PTX: 800000 instructions simulated : ctaid=(35,0,0) tid=(447,0,0)
GPGPU-Sim PTX: 900000 instructions simulated : ctaid=(40,0,0) tid=(223,0,0)
GPGPU-Sim PTX: 1000000 instructions simulated : ctaid=(21,0,0) tid=(351,0,0)
GPGPU-Sim PTX: 1100000 instructions simulated : ctaid=(3,0,0) tid=(383,0,0)
GPGPU-Sim PTX: 1200000 instructions simulated : ctaid=(37,0,0) tid=(95,0,0)
GPGPU-Sim PTX: 1300000 instructions simulated : ctaid=(40,0,0) tid=(351,0,0)
GPGPU-Sim PTX: 1400000 instructions simulated : ctaid=(25,0,0) tid=(287,0,0)
GPGPU-Sim uArch: cycles simulated: 3500  inst.: 1363328 (ipc=389.5) sim_rate=454442 (inst/sec) elapsed = 0:0:00:03 / Tue Jan 29 09:31:24 2019
GPGPU-Sim PTX: 1500000 instructions simulated : ctaid=(6,0,0) tid=(63,0,0)
GPGPU-Sim PTX: 1600000 instructions simulated : ctaid=(5,0,0) tid=(31,0,0)
GPGPU-Sim PTX: 1700000 instructions simulated : ctaid=(24,0,0) tid=(511,0,0)
GPGPU-Sim PTX: 1800000 instructions simulated : ctaid=(32,0,0) tid=(415,0,0)
GPGPU-Sim uArch: cycles simulated: 4000  inst.: 1737920 (ipc=434.5) sim_rate=434480 (inst/sec) elapsed = 0:0:00:04 / Tue Jan 29 09:31:25 2019
GPGPU-Sim PTX: 1900000 instructions simulated : ctaid=(29,0,0) tid=(159,0,0)
GPGPU-Sim PTX: 2000000 instructions simulated : ctaid=(13,0,0) tid=(191,0,0)
GPGPU-Sim PTX: 2100000 instructions simulated : ctaid=(20,0,0) tid=(143,0,0)
GPGPU-Sim PTX: 2200000 instructions simulated : ctaid=(22,0,0) tid=(87,0,0)
GPGPU-Sim PTX: 2300000 instructions simulated : ctaid=(8,0,0) tid=(47,0,0)
GPGPU-Sim PTX: 2400000 instructions simulated : ctaid=(1,0,0) tid=(79,0,0)
GPGPU-Sim PTX: 2500000 instructions simulated : ctaid=(5,0,0) tid=(379,0,0)
GPGPU-Sim PTX: 2600000 instructions simulated : ctaid=(20,0,0) tid=(177,0,0)
GPGPU-Sim PTX: 2700000 instructions simulated : ctaid=(36,0,0) tid=(165,0,0)
GPGPU-Sim PTX: 2800000 instructions simulated : ctaid=(13,0,0) tid=(408,0,0)
GPGPU-Sim uArch: cycles simulated: 5500  inst.: 2743321 (ipc=498.8) sim_rate=548664 (inst/sec) elapsed = 0:0:00:05 / Tue Jan 29 09:31:26 2019
GPGPU-Sim PTX: 2900000 instructions simulated : ctaid=(11,0,0) tid=(409,0,0)
GPGPU-Sim PTX: 3000000 instructions simulated : ctaid=(14,0,0) tid=(482,0,0)
GPGPU-Sim uArch: Shader 3 finished CTA #0 (6734,0), 2 CTAs running
GPGPU-Sim uArch: core:  3, cta: 0 initialized @(6735,0)
GPGPU-Sim PTX: 3100000 instructions simulated : ctaid=(45,0,0) tid=(423,0,0)
GPGPU-Sim uArch: Shader 6 finished CTA #0 (6878,0), 2 CTAs running
GPGPU-Sim uArch: core:  6, cta: 0 initialized @(6879,0)
GPGPU-Sim uArch: Shader 7 finished CTA #0 (6881,0), 2 CTAs running
GPGPU-Sim uArch: core:  7, cta: 0 initialized @(6882,0)
GPGPU-Sim uArch: Shader 8 finished CTA #0 (6884,0), 2 CTAs running
GPGPU-Sim uArch: core:  8, cta: 0 initialized @(6885,0)
GPGPU-Sim uArch: Shader 14 finished CTA #0 (6902,0), 2 CTAs running
GPGPU-Sim uArch: core: 14, cta: 0 initialized @(6903,0)
GPGPU-Sim uArch: Shader 4 finished CTA #0 (6917,0), 2 CTAs running
GPGPU-Sim uArch: core:  4, cta: 0 initialized @(6918,0)
GPGPU-Sim uArch: Shader 5 finished CTA #0 (6920,0), 2 CTAs running
GPGPU-Sim uArch: core:  5, cta: 0 initialized @(6921,0)
GPGPU-Sim uArch: Shader 11 finished CTA #0 (6938,0), 2 CTAs running
GPGPU-Sim uArch: core: 11, cta: 0 initialized @(6939,0)
GPGPU-Sim uArch: Shader 13 finished CTA #0 (6944,0), 2 CTAs running
GPGPU-Sim uArch: core: 13, cta: 0 initialized @(6945,0)
GPGPU-Sim uArch: Shader 0 finished CTA #0 (6950,0), 2 CTAs running
GPGPU-Sim uArch: core:  0, cta: 0 initialized @(6951,0)
GPGPU-Sim uArch: Shader 1 finished CTA #0 (6953,0), 2 CTAs running
GPGPU-Sim uArch: core:  1, cta: 0 initialized @(6954,0)
GPGPU-Sim uArch: Shader 2 finished CTA #0 (6956,0), 2 CTAs running
GPGPU-Sim uArch: core:  2, cta: 0 initialized @(6957,0)
GPGPU-Sim uArch: cycles simulated: 7000  inst.: 3005125 (ipc=429.3) sim_rate=500854 (inst/sec) elapsed = 0:0:00:06 / Tue Jan 29 09:31:27 2019
GPGPU-Sim uArch: Shader 9 finished CTA #0 (7067,0), 2 CTAs running
GPGPU-Sim uArch: core:  9, cta: 0 initialized @(7068,0)
GPGPU-Sim PTX: 3200000 instructions simulated : ctaid=(57,0,0) tid=(263,0,0)
GPGPU-Sim uArch: Shader 3 finished CTA #1 (7274,0), 2 CTAs running
GPGPU-Sim uArch: core:  3, cta: 1 initialized @(7275,0)
GPGPU-Sim uArch: Shader 8 finished CTA #1 (7334,0), 2 CTAs running
GPGPU-Sim uArch: core:  8, cta: 1 initialized @(7335,0)
GPGPU-Sim uArch: Shader 14 finished CTA #1 (7352,0), 2 CTAs running
GPGPU-Sim uArch: core: 14, cta: 1 initialized @(7353,0)
GPGPU-Sim uArch: Shader 5 finished CTA #1 (7370,0), 2 CTAs running
GPGPU-Sim uArch: core:  5, cta: 1 initialized @(7371,0)
GPGPU-Sim uArch: Shader 12 finished CTA #0 (7391,0), 2 CTAs running
GPGPU-Sim uArch: core: 12, cta: 0 initialized @(7392,0)
GPGPU-Sim uArch: Shader 2 finished CTA #1 (7496,0), 2 CTAs running
GPGPU-Sim uArch: core:  2, cta: 1 initialized @(7497,0)
GPGPU-Sim uArch: Shader 6 finished CTA #1 (7553,0), 2 CTAs running
GPGPU-Sim uArch: core:  6, cta: 1 initialized @(7554,0)
GPGPU-Sim uArch: Shader 7 finished CTA #1 (7556,0), 2 CTAs running
GPGPU-Sim uArch: core:  7, cta: 1 initialized @(7557,0)
GPGPU-Sim uArch: Shader 10 finished CTA #0 (7565,0), 2 CTAs running
GPGPU-Sim uArch: core: 10, cta: 0 initialized @(7566,0)
GPGPU-Sim uArch: Shader 4 finished CTA #1 (7592,0), 2 CTAs running
GPGPU-Sim uArch: core:  4, cta: 1 initialized @(7593,0)
GPGPU-Sim uArch: Shader 9 finished CTA #1 (7652,0), 2 CTAs running
GPGPU-Sim uArch: core:  9, cta: 1 initialized @(7653,0)
GPGPU-Sim uArch: Shader 0 finished CTA #1 (7670,0), 2 CTAs running
GPGPU-Sim uArch: core:  0, cta: 1 initialized @(7671,0)
GPGPU-Sim PTX: 3300000 instructions simulated : ctaid=(69,0,0) tid=(391,0,0)
GPGPU-Sim uArch: Shader 11 finished CTA #1 (7748,0), 2 CTAs running
GPGPU-Sim uArch: core: 11, cta: 1 initialized @(7749,0)
GPGPU-Sim uArch: Shader 13 finished CTA #1 (7754,0), 2 CTAs running
GPGPU-Sim uArch: core: 13, cta: 1 initialized @(7755,0)
GPGPU-Sim uArch: Shader 1 finished CTA #1 (7763,0), 2 CTAs running
GPGPU-Sim uArch: core:  1, cta: 1 initialized @(7764,0)
GPGPU-Sim uArch: Shader 3 finished CTA #2 (7814,0), 2 CTAs running
GPGPU-Sim uArch: core:  3, cta: 2 initialized @(7815,0)
GPGPU-Sim uArch: Shader 8 finished CTA #2 (7829,0), 2 CTAs running
GPGPU-Sim uArch: core:  8, cta: 2 initialized @(7830,0)
GPGPU-Sim uArch: Shader 12 finished CTA #1 (7884,0), 2 CTAs running
GPGPU-Sim uArch: core: 12, cta: 1 initialized @(7885,0)
GPGPU-Sim uArch: Shader 6 finished CTA #2 (7910,0), 2 CTAs running
GPGPU-Sim uArch: core:  6, cta: 2 initialized @(7911,0)
GPGPU-Sim uArch: Shader 7 finished CTA #2 (7913,0), 2 CTAs running
GPGPU-Sim uArch: core:  7, cta: 2 initialized @(7914,0)
GPGPU-Sim uArch: Shader 10 finished CTA #1 (7921,0), 2 CTAs running
GPGPU-Sim uArch: core: 10, cta: 1 initialized @(7922,0)
GPGPU-Sim uArch: Shader 2 finished CTA #2 (7942,0), 2 CTAs running
GPGPU-Sim uArch: core:  2, cta: 2 initialized @(7943,0)
GPGPU-Sim uArch: Shader 9 finished CTA #2 (7953,0), 2 CTAs running
GPGPU-Sim uArch: core:  9, cta: 2 initialized @(7954,0)
GPGPU-Sim PTX: 3400000 instructions simulated : ctaid=(76,0,0) tid=(263,0,0)
GPGPU-Sim uArch: Shader 5 finished CTA #2 (7984,0), 2 CTAs running
GPGPU-Sim uArch: core:  5, cta: 2 initialized @(7985,0)
GPGPU-Sim uArch: cycles simulated: 8000  inst.: 3241125 (ipc=405.1) sim_rate=463017 (inst/sec) elapsed = 0:0:00:07 / Tue Jan 29 09:31:28 2019
GPGPU-Sim uArch: Shader 14 finished CTA #2 (8003,0), 2 CTAs running
GPGPU-Sim uArch: core: 14, cta: 2 initialized @(8004,0)
GPGPU-Sim uArch: Shader 4 finished CTA #2 (8014,0), 2 CTAs running
GPGPU-Sim uArch: core:  4, cta: 2 initialized @(8015,0)
GPGPU-Sim uArch: Shader 11 finished CTA #2 (8028,0), 2 CTAs running
GPGPU-Sim uArch: core: 11, cta: 2 initialized @(8029,0)
GPGPU-Sim uArch: Shader 13 finished CTA #2 (8034,0), 2 CTAs running
GPGPU-Sim uArch: core: 13, cta: 2 initialized @(8035,0)
GPGPU-Sim uArch: Shader 0 finished CTA #2 (8039,0), 2 CTAs running
GPGPU-Sim uArch: core:  0, cta: 2 initialized @(8040,0)
GPGPU-Sim uArch: Shader 1 finished CTA #2 (8051,0), 2 CTAs running
GPGPU-Sim uArch: core:  1, cta: 2 initialized @(8052,0)
GPGPU-Sim uArch: Shader 10 finished CTA #2 (8082,0), 2 CTAs running
GPGPU-Sim uArch: core: 10, cta: 2 initialized @(8083,0)
GPGPU-Sim uArch: Shader 12 finished CTA #2 (8083,0), 2 CTAs running
GPGPU-Sim uArch: core: 12, cta: 2 initialized @(8084,0)
GPGPU-Sim PTX: 3500000 instructions simulated : ctaid=(47,0,0) tid=(39,0,0)
GPGPU-Sim PTX: 3600000 instructions simulated : ctaid=(56,0,0) tid=(103,0,0)
GPGPU-Sim PTX: 3700000 instructions simulated : ctaid=(68,0,0) tid=(327,0,0)
GPGPU-Sim PTX: 3800000 instructions simulated : ctaid=(71,0,0) tid=(103,0,0)
GPGPU-Sim PTX: 3900000 instructions simulated : ctaid=(57,0,0) tid=(423,0,0)
GPGPU-Sim PTX: 4000000 instructions simulated : ctaid=(48,0,0) tid=(71,0,0)
GPGPU-Sim uArch: cycles simulated: 9000  inst.: 3810405 (ipc=423.4) sim_rate=476300 (inst/sec) elapsed = 0:0:00:08 / Tue Jan 29 09:31:29 2019
GPGPU-Sim PTX: 4100000 instructions simulated : ctaid=(56,0,0) tid=(231,0,0)
GPGPU-Sim PTX: 4200000 instructions simulated : ctaid=(75,0,0) tid=(487,0,0)
GPGPU-Sim PTX: 4300000 instructions simulated : ctaid=(77,0,0) tid=(423,0,0)
GPGPU-Sim PTX: 4400000 instructions simulated : ctaid=(81,0,0) tid=(487,0,0)
GPGPU-Sim uArch: cycles simulated: 9500  inst.: 4193349 (ipc=441.4) sim_rate=465927 (inst/sec) elapsed = 0:0:00:09 / Tue Jan 29 09:31:30 2019
GPGPU-Sim PTX: 4500000 instructions simulated : ctaid=(84,0,0) tid=(359,0,0)
GPGPU-Sim PTX: 4600000 instructions simulated : ctaid=(67,0,0) tid=(167,0,0)
GPGPU-Sim PTX: 4700000 instructions simulated : ctaid=(45,0,0) tid=(359,0,0)
GPGPU-Sim PTX: 4800000 instructions simulated : ctaid=(66,0,0) tid=(55,0,0)
GPGPU-Sim PTX: 4900000 instructions simulated : ctaid=(45,0,0) tid=(311,0,0)
GPGPU-Sim PTX: 5000000 instructions simulated : ctaid=(47,0,0) tid=(479,0,0)
GPGPU-Sim PTX: 5100000 instructions simulated : ctaid=(60,0,0) tid=(295,0,0)
GPGPU-Sim uArch: cycles simulated: 10500  inst.: 4938117 (ipc=470.3) sim_rate=493811 (inst/sec) elapsed = 0:0:00:10 / Tue Jan 29 09:31:31 2019
GPGPU-Sim PTX: 5200000 instructions simulated : ctaid=(63,0,0) tid=(355,0,0)
GPGPU-Sim PTX: 5300000 instructions simulated : ctaid=(78,0,0) tid=(361,0,0)
GPGPU-Sim PTX: 5400000 instructions simulated : ctaid=(62,0,0) tid=(337,0,0)
GPGPU-Sim PTX: 5500000 instructions simulated : ctaid=(79,0,0) tid=(326,0,0)
GPGPU-Sim PTX: 5600000 instructions simulated : ctaid=(71,0,0) tid=(180,0,0)
GPGPU-Sim PTX: 5700000 instructions simulated : ctaid=(56,0,0) tid=(262,0,0)
GPGPU-Sim uArch: Shader 6 finished CTA #0 (11273,0), 2 CTAs running
GPGPU-Sim uArch: core:  6, cta: 0 initialized @(11274,0)
GPGPU-Sim PTX: 5800000 instructions simulated : ctaid=(64,0,0) tid=(467,0,0)
GPGPU-Sim uArch: Shader 8 finished CTA #0 (11387,0), 2 CTAs running
GPGPU-Sim uArch: core:  8, cta: 0 initialized @(11388,0)
GPGPU-Sim uArch: Shader 14 finished CTA #0 (11389,0), 2 CTAs running
GPGPU-Sim uArch: core: 14, cta: 0 initialized @(11390,0)
GPGPU-Sim uArch: Shader 4 finished CTA #0 (11425,0), 2 CTAs running
GPGPU-Sim uArch: Shader 7 finished CTA #0 (11425,0), 2 CTAs running
GPGPU-Sim uArch: core:  4, cta: 0 initialized @(11426,0)
GPGPU-Sim uArch: core:  7, cta: 0 initialized @(11426,0)
GPGPU-Sim uArch: Shader 3 finished CTA #0 (11484,0), 2 CTAs running
GPGPU-Sim uArch: core:  3, cta: 0 initialized @(11485,0)
GPGPU-Sim uArch: cycles simulated: 11500  inst.: 5619164 (ipc=488.6) sim_rate=510833 (inst/sec) elapsed = 0:0:00:11 / Tue Jan 29 09:31:32 2019
GPGPU-Sim PTX: 5900000 instructions simulated : ctaid=(66,0,0) tid=(260,0,0)
GPGPU-Sim uArch: Shader 9 finished CTA #0 (11602,0), 2 CTAs running
GPGPU-Sim uArch: core:  9, cta: 0 initialized @(11603,0)
GPGPU-Sim PTX: 6000000 instructions simulated : ctaid=(80,0,0) tid=(24,0,0)
GPGPU-Sim uArch: Shader 5 finished CTA #0 (11658,0), 2 CTAs running
GPGPU-Sim uArch: core:  5, cta: 0 initialized @(11659,0)
GPGPU-Sim uArch: Shader 11 finished CTA #0 (11726,0), 2 CTAs running
GPGPU-Sim uArch: core: 11, cta: 0 initialized @(11727,0)
GPGPU-Sim uArch: Shader 6 finished CTA #1 (11753,0), 2 CTAs running
GPGPU-Sim uArch: core:  6, cta: 1 initialized @(11754,0)
GPGPU-Sim uArch: Shader 1 finished CTA #0 (11756,0), 2 CTAs running
GPGPU-Sim uArch: core:  1, cta: 0 initialized @(11757,0)
GPGPU-Sim uArch: Shader 2 finished CTA #0 (11770,0), 2 CTAs running
GPGPU-Sim uArch: core:  2, cta: 0 initialized @(11771,0)
GPGPU-Sim PTX: 6100000 instructions simulated : ctaid=(72,0,0) tid=(70,0,0)
GPGPU-Sim uArch: Shader 3 finished CTA #1 (11832,0), 2 CTAs running
GPGPU-Sim uArch: core:  3, cta: 1 initialized @(11833,0)
GPGPU-Sim uArch: Shader 10 finished CTA #0 (11888,0), 2 CTAs running
GPGPU-Sim uArch: core: 10, cta: 0 initialized @(11889,0)
GPGPU-Sim PTX: 6200000 instructions simulated : ctaid=(100,0,0) tid=(214,0,0)
GPGPU-Sim uArch: Shader 13 finished CTA #0 (11958,0), 2 CTAs running
GPGPU-Sim uArch: core: 13, cta: 0 initialized @(11959,0)
GPGPU-Sim uArch: cycles simulated: 12000  inst.: 5965311 (ipc=497.1) sim_rate=497109 (inst/sec) elapsed = 0:0:00:12 / Tue Jan 29 09:31:33 2019
GPGPU-Sim uArch: Shader 0 finished CTA #0 (12017,0), 2 CTAs running
GPGPU-Sim uArch: core:  0, cta: 0 initialized @(12018,0)
GPGPU-Sim uArch: Shader 12 finished CTA #0 (12028,0), 2 CTAs running
GPGPU-Sim uArch: core: 12, cta: 0 initialized @(12029,0)
GPGPU-Sim PTX: 6300000 instructions simulated : ctaid=(76,0,0) tid=(282,0,0)
GPGPU-Sim uArch: Shader 11 finished CTA #1 (12087,0), 2 CTAs running
GPGPU-Sim uArch: core: 11, cta: 1 initialized @(12088,0)
GPGPU-Sim uArch: Shader 5 finished CTA #1 (12096,0), 2 CTAs running
GPGPU-Sim uArch: core:  5, cta: 1 initialized @(12097,0)
GPGPU-Sim uArch: Shader 8 finished CTA #1 (12102,0), 2 CTAs running
GPGPU-Sim uArch: core:  8, cta: 1 initialized @(12103,0)
GPGPU-Sim uArch: Shader 2 finished CTA #1 (12112,0), 2 CTAs running
GPGPU-Sim uArch: core:  2, cta: 1 initialized @(12113,0)
GPGPU-Sim uArch: Shader 14 finished CTA #1 (12125,0), 2 CTAs running
GPGPU-Sim uArch: core: 14, cta: 1 initialized @(12126,0)
GPGPU-Sim uArch: Shader 4 finished CTA #1 (12140,0), 2 CTAs running
GPGPU-Sim uArch: core:  4, cta: 1 initialized @(12141,0)
GPGPU-Sim uArch: Shader 7 finished CTA #1 (12158,0), 2 CTAs running
GPGPU-Sim uArch: core:  7, cta: 1 initialized @(12159,0)
GPGPU-Sim uArch: Shader 1 finished CTA #1 (12201,0), 2 CTAs running
GPGPU-Sim uArch: core:  1, cta: 1 initialized @(12202,0)
GPGPU-Sim PTX: 6400000 instructions simulated : ctaid=(108,0,0) tid=(82,0,0)
GPGPU-Sim uArch: Shader 9 finished CTA #1 (12449,0), 2 CTAs running
GPGPU-Sim uArch: core:  9, cta: 1 initialized @(12450,0)
GPGPU-Sim PTX: 6500000 instructions simulated : ctaid=(115,0,0) tid=(239,0,0)
GPGPU-Sim uArch: Shader 13 finished CTA #1 (12526,0), 2 CTAs running
GPGPU-Sim uArch: core: 13, cta: 1 initialized @(12527,0)
GPGPU-Sim uArch: Shader 0 finished CTA #1 (12577,0), 2 CTAs running
GPGPU-Sim uArch: core:  0, cta: 1 initialized @(12578,0)
GPGPU-Sim uArch: Shader 10 finished CTA #1 (12623,0), 2 CTAs running
GPGPU-Sim uArch: core: 10, cta: 1 initialized @(12624,0)
GPGPU-Sim uArch: Shader 12 finished CTA #1 (12657,0), 2 CTAs running
GPGPU-Sim uArch: core: 12, cta: 1 initialized @(12658,0)
GPGPU-Sim uArch: Shader 3 finished CTA #2 (12719,0), 2 CTAs running
GPGPU-Sim uArch: core:  3, cta: 2 initialized @(12720,0)
GPGPU-Sim uArch: Shader 5 finished CTA #2 (12823,0), 2 CTAs running
GPGPU-Sim uArch: core:  5, cta: 2 initialized @(12824,0)
GPGPU-Sim uArch: Shader 7 finished CTA #2 (12827,0), 2 CTAs running
GPGPU-Sim uArch: core:  7, cta: 2 initialized @(12828,0)
GPGPU-Sim uArch: Shader 8 finished CTA #2 (12829,0), 2 CTAs running
GPGPU-Sim uArch: core:  8, cta: 2 initialized @(12830,0)
GPGPU-Sim uArch: Shader 11 finished CTA #2 (12869,0), 2 CTAs running
GPGPU-Sim uArch: core: 11, cta: 2 initialized @(12870,0)
GPGPU-Sim PTX: 6600000 instructions simulated : ctaid=(116,0,0) tid=(399,0,0)
GPGPU-Sim uArch: Shader 1 finished CTA #2 (12926,0), 2 CTAs running
GPGPU-Sim uArch: core:  1, cta: 2 initialized @(12927,0)
GPGPU-Sim uArch: Shader 4 finished CTA #2 (12937,0), 2 CTAs running
GPGPU-Sim uArch: core:  4, cta: 2 initialized @(12938,0)
GPGPU-Sim uArch: Shader 6 finished CTA #2 (12943,0), 2 CTAs running
GPGPU-Sim uArch: core:  6, cta: 2 initialized @(12944,0)
GPGPU-Sim uArch: Shader 14 finished CTA #2 (12953,0), 2 CTAs running
GPGPU-Sim uArch: core: 14, cta: 2 initialized @(12954,0)
GPGPU-Sim uArch: Shader 2 finished CTA #2 (12960,0), 2 CTAs running
GPGPU-Sim uArch: core:  2, cta: 2 initialized @(12961,0)
GPGPU-Sim uArch: cycles simulated: 13000  inst.: 6342090 (ipc=487.9) sim_rate=487853 (inst/sec) elapsed = 0:0:00:13 / Tue Jan 29 09:31:34 2019
GPGPU-Sim PTX: 6700000 instructions simulated : ctaid=(114,0,0) tid=(111,0,0)
GPGPU-Sim uArch: Shader 9 finished CTA #2 (13102,0), 2 CTAs running
GPGPU-Sim uArch: core:  9, cta: 2 initialized @(13103,0)
GPGPU-Sim PTX: 6800000 instructions simulated : ctaid=(109,0,0) tid=(367,0,0)
GPGPU-Sim uArch: Shader 13 finished CTA #2 (13356,0), 2 CTAs running
GPGPU-Sim uArch: core: 13, cta: 2 initialized @(13357,0)
GPGPU-Sim uArch: Shader 0 finished CTA #2 (13358,0), 2 CTAs running
GPGPU-Sim uArch: core:  0, cta: 2 initialized @(13359,0)
GPGPU-Sim uArch: Shader 10 finished CTA #2 (13360,0), 2 CTAs running
GPGPU-Sim uArch: core: 10, cta: 2 initialized @(13361,0)
GPGPU-Sim PTX: 6900000 instructions simulated : ctaid=(118,0,0) tid=(431,0,0)
GPGPU-Sim uArch: Shader 12 finished CTA #2 (13427,0), 2 CTAs running
GPGPU-Sim uArch: core: 12, cta: 2 initialized @(13428,0)
GPGPU-Sim uArch: cycles simulated: 13500  inst.: 6646026 (ipc=492.3) sim_rate=474716 (inst/sec) elapsed = 0:0:00:14 / Tue Jan 29 09:31:35 2019
GPGPU-Sim PTX: 7000000 instructions simulated : ctaid=(91,0,0) tid=(271,0,0)
GPGPU-Sim PTX: 7100000 instructions simulated : ctaid=(125,0,0) tid=(367,0,0)
GPGPU-Sim PTX: 7200000 instructions simulated : ctaid=(108,0,0) tid=(495,0,0)
GPGPU-Sim PTX: 7300000 instructions simulated : ctaid=(90,0,0) tid=(415,0,0)
GPGPU-Sim uArch: cycles simulated: 14000  inst.: 6993290 (ipc=499.5) sim_rate=466219 (inst/sec) elapsed = 0:0:00:15 / Tue Jan 29 09:31:36 2019
GPGPU-Sim PTX: 7400000 instructions simulated : ctaid=(128,0,0) tid=(111,0,0)
GPGPU-Sim PTX: 7500000 instructions simulated : ctaid=(105,0,0) tid=(175,0,0)
GPGPU-Sim PTX: 7600000 instructions simulated : ctaid=(107,0,0) tid=(71,0,0)
GPGPU-Sim PTX: 7700000 instructions simulated : ctaid=(111,0,0) tid=(219,0,0)
GPGPU-Sim PTX: 7800000 instructions simulated : ctaid=(109,0,0) tid=(419,0,0)
GPGPU-Sim PTX: 7900000 instructions simulated : ctaid=(111,0,0) tid=(469,0,0)
GPGPU-Sim PTX: 8000000 instructions simulated : ctaid=(105,0,0) tid=(73,0,0)
GPGPU-Sim PTX: 8100000 instructions simulated : ctaid=(95,0,0) tid=(265,0,0)
GPGPU-Sim uArch: cycles simulated: 15000  inst.: 7748077 (ipc=516.5) sim_rate=484254 (inst/sec) elapsed = 0:0:00:16 / Tue Jan 29 09:31:37 2019
GPGPU-Sim PTX: 8200000 instructions simulated : ctaid=(125,0,0) tid=(490,0,0)
GPGPU-Sim PTX: 8300000 instructions simulated : ctaid=(105,0,0) tid=(195,0,0)
GPGPU-Sim uArch: Shader 3 finished CTA #0 (15314,0), 2 CTAs running
GPGPU-Sim uArch: core:  3, cta: 0 initialized @(15315,0)
GPGPU-Sim PTX: 8400000 instructions simulated : ctaid=(125,0,0) tid=(508,0,0)
GPGPU-Sim uArch: Shader 8 finished CTA #0 (15377,0), 2 CTAs running
GPGPU-Sim uArch: core:  8, cta: 0 initialized @(15378,0)
GPGPU-Sim PTX: 8500000 instructions simulated : ctaid=(136,0,0) tid=(475,0,0)
GPGPU-Sim PTX: 8600000 instructions simulated : ctaid=(134,0,0) tid=(3,0,0)
GPGPU-Sim uArch: Shader 5 finished CTA #0 (15650,0), 2 CTAs running
GPGPU-Sim uArch: core:  5, cta: 0 initialized @(15651,0)
GPGPU-Sim uArch: Shader 7 finished CTA #0 (15723,0), 2 CTAs running
GPGPU-Sim uArch: core:  7, cta: 0 initialized @(15724,0)
GPGPU-Sim uArch: Shader 6 finished CTA #0 (15766,0), 2 CTAs running
GPGPU-Sim uArch: core:  6, cta: 0 initialized @(15767,0)
GPGPU-Sim PTX: 8700000 instructions simulated : ctaid=(131,0,0) tid=(177,0,0)
GPGPU-Sim uArch: Shader 14 finished CTA #0 (15804,0), 2 CTAs running
GPGPU-Sim uArch: core: 14, cta: 0 initialized @(15805,0)
GPGPU-Sim uArch: Shader 4 finished CTA #0 (15809,0), 2 CTAs running
GPGPU-Sim uArch: core:  4, cta: 0 initialized @(15810,0)
GPGPU-Sim PTX: 8800000 instructions simulated : ctaid=(105,0,0) tid=(297,0,0)
GPGPU-Sim uArch: cycles simulated: 16000  inst.: 8454994 (ipc=528.4) sim_rate=497352 (inst/sec) elapsed = 0:0:00:17 / Tue Jan 29 09:31:38 2019
GPGPU-Sim PTX: 8900000 instructions simulated : ctaid=(99,0,0) tid=(174,0,0)
GPGPU-Sim PTX: 9000000 instructions simulated : ctaid=(104,0,0) tid=(37,0,0)
GPGPU-Sim uArch: Shader 1 finished CTA #0 (16221,0), 2 CTAs running
GPGPU-Sim uArch: core:  1, cta: 0 initialized @(16222,0)
GPGPU-Sim uArch: Shader 11 finished CTA #0 (16283,0), 2 CTAs running
GPGPU-Sim uArch: core: 11, cta: 0 initialized @(16284,0)
GPGPU-Sim uArch: Shader 9 finished CTA #0 (16309,0), 2 CTAs running
GPGPU-Sim uArch: core:  9, cta: 0 initialized @(16310,0)
GPGPU-Sim PTX: 9100000 instructions simulated : ctaid=(123,0,0) tid=(319,0,0)
GPGPU-Sim uArch: Shader 2 finished CTA #0 (16442,0), 2 CTAs running
GPGPU-Sim uArch: core:  2, cta: 0 initialized @(16443,0)
GPGPU-Sim PTX: 9200000 instructions simulated : ctaid=(141,0,0) tid=(252,0,0)
GPGPU-Sim uArch: cycles simulated: 16500  inst.: 8808705 (ipc=533.9) sim_rate=489372 (inst/sec) elapsed = 0:0:00:18 / Tue Jan 29 09:31:39 2019
GPGPU-Sim uArch: Shader 10 finished CTA #0 (16505,0), 2 CTAs running
GPGPU-Sim uArch: core: 10, cta: 0 initialized @(16506,0)
GPGPU-Sim PTX: 9300000 instructions simulated : ctaid=(119,0,0) tid=(258,0,0)
GPGPU-Sim uArch: Shader 5 finished CTA #1 (16649,0), 2 CTAs running
GPGPU-Sim uArch: core:  5, cta: 1 initialized @(16650,0)
GPGPU-Sim PTX: 9400000 instructions simulated : ctaid=(124,0,0) tid=(261,0,0)
GPGPU-Sim uArch: Shader 3 finished CTA #1 (16825,0), 2 CTAs running
GPGPU-Sim uArch: core:  3, cta: 1 initialized @(16826,0)
GPGPU-Sim uArch: Shader 11 finished CTA #1 (16887,0), 2 CTAs running
GPGPU-Sim uArch: core: 11, cta: 1 initialized @(16888,0)
GPGPU-Sim uArch: Shader 7 finished CTA #1 (16919,0), 2 CTAs running
GPGPU-Sim uArch: core:  7, cta: 1 initialized @(16920,0)
GPGPU-Sim uArch: Shader 4 finished CTA #1 (16969,0), 2 CTAs running
GPGPU-Sim uArch: core:  4, cta: 1 initialized @(16970,0)
GPGPU-Sim uArch: Shader 9 finished CTA #1 (17012,0), 2 CTAs running
GPGPU-Sim uArch: core:  9, cta: 1 initialized @(17013,0)
GPGPU-Sim PTX: 9500000 instructions simulated : ctaid=(133,0,0) tid=(151,0,0)
GPGPU-Sim uArch: Shader 1 finished CTA #1 (17062,0), 2 CTAs running
GPGPU-Sim uArch: core:  1, cta: 1 initialized @(17063,0)
GPGPU-Sim uArch: Shader 6 finished CTA #1 (17072,0), 2 CTAs running
GPGPU-Sim uArch: core:  6, cta: 1 initialized @(17073,0)
GPGPU-Sim uArch: Shader 8 finished CTA #1 (17090,0), 2 CTAs running
GPGPU-Sim uArch: core:  8, cta: 1 initialized @(17091,0)
GPGPU-Sim uArch: Shader 12 finished CTA #0 (17102,0), 2 CTAs running
GPGPU-Sim uArch: core: 12, cta: 0 initialized @(17103,0)
GPGPU-Sim uArch: Shader 2 finished CTA #1 (17181,0), 2 CTAs running
GPGPU-Sim uArch: core:  2, cta: 1 initialized @(17182,0)
GPGPU-Sim uArch: Shader 14 finished CTA #1 (17209,0), 2 CTAs running
GPGPU-Sim uArch: core: 14, cta: 1 initialized @(17210,0)
GPGPU-Sim PTX: 9600000 instructions simulated : ctaid=(136,0,0) tid=(339,0,0)
GPGPU-Sim uArch: Shader 13 finished CTA #0 (17345,0), 2 CTAs running
GPGPU-Sim uArch: core: 13, cta: 0 initialized @(17346,0)
GPGPU-Sim uArch: Shader 9 finished CTA #2 (17352,0), 2 CTAs running
GPGPU-Sim uArch: core:  9, cta: 2 initialized @(17353,0)
GPGPU-Sim uArch: Shader 0 finished CTA #0 (17385,0), 2 CTAs running
GPGPU-Sim uArch: core:  0, cta: 0 initialized @(17386,0)
GPGPU-Sim uArch: Shader 2 finished CTA #2 (17433,0), 2 CTAs running
GPGPU-Sim uArch: Shader 10 finished CTA #1 (17433,0), 2 CTAs running
GPGPU-Sim uArch: core:  2, cta: 2 initialized @(17434,0)
GPGPU-Sim uArch: core: 10, cta: 1 initialized @(17434,0)
GPGPU-Sim uArch: Shader 14 finished CTA #2 (17435,0), 2 CTAs running
GPGPU-Sim uArch: core: 14, cta: 2 initialized @(17436,0)
GPGPU-Sim PTX: 9700000 instructions simulated : ctaid=(161,0,0) tid=(503,0,0)
GPGPU-Sim uArch: cycles simulated: 17500  inst.: 9267791 (ipc=529.6) sim_rate=487778 (inst/sec) elapsed = 0:0:00:19 / Tue Jan 29 09:31:40 2019
GPGPU-Sim uArch: Shader 5 finished CTA #2 (17538,0), 2 CTAs running
GPGPU-Sim uArch: core:  5, cta: 2 initialized @(17539,0)
GPGPU-Sim uArch: Shader 3 finished CTA #2 (17564,0), 2 CTAs running
GPGPU-Sim uArch: core:  3, cta: 2 initialized @(17565,0)
GPGPU-Sim uArch: Shader 10 finished CTA #2 (17598,0), 2 CTAs running
GPGPU-Sim uArch: core: 10, cta: 2 initialized @(17599,0)
GPGPU-Sim uArch: Shader 7 finished CTA #2 (17626,0), 2 CTAs running
GPGPU-Sim uArch: core:  7, cta: 2 initialized @(17627,0)
GPGPU-Sim uArch: Shader 11 finished CTA #2 (17630,0), 2 CTAs running
GPGPU-Sim uArch: core: 11, cta: 2 initialized @(17631,0)
GPGPU-Sim uArch: Shader 4 finished CTA #2 (17640,0), 2 CTAs running
GPGPU-Sim uArch: core:  4, cta: 2 initialized @(17641,0)
GPGPU-Sim uArch: Shader 1 finished CTA #2 (17652,0), 2 CTAs running
GPGPU-Sim uArch: core:  1, cta: 2 initialized @(17653,0)
GPGPU-Sim PTX: 9800000 instructions simulated : ctaid=(170,0,0) tid=(87,0,0)
GPGPU-Sim uArch: Shader 12 finished CTA #1 (17671,0), 2 CTAs running
GPGPU-Sim uArch: core: 12, cta: 1 initialized @(17672,0)
GPGPU-Sim uArch: Shader 8 finished CTA #2 (17676,0), 2 CTAs running
GPGPU-Sim uArch: core:  8, cta: 2 initialized @(17677,0)
GPGPU-Sim uArch: Shader 6 finished CTA #2 (17694,0), 2 CTAs running
GPGPU-Sim uArch: core:  6, cta: 2 initialized @(17695,0)
GPGPU-Sim uArch: Shader 13 finished CTA #1 (17751,0), 2 CTAs running
GPGPU-Sim uArch: core: 13, cta: 1 initialized @(17752,0)
GPGPU-Sim uArch: Shader 0 finished CTA #1 (17763,0), 2 CTAs running
GPGPU-Sim uArch: core:  0, cta: 1 initialized @(17764,0)
GPGPU-Sim PTX: 9900000 instructions simulated : ctaid=(144,0,0) tid=(119,0,0)
GPGPU-Sim PTX: 10000000 instructions simulated : ctaid=(175,0,0) tid=(311,0,0)
GPGPU-Sim uArch: cycles simulated: 18000  inst.: 9572559 (ipc=531.8) sim_rate=478627 (inst/sec) elapsed = 0:0:00:20 / Tue Jan 29 09:31:41 2019
GPGPU-Sim uArch: Shader 12 finished CTA #2 (18002,0), 2 CTAs running
GPGPU-Sim uArch: core: 12, cta: 2 initialized @(18003,0)
GPGPU-Sim PTX: 10100000 instructions simulated : ctaid=(143,0,0) tid=(327,0,0)
GPGPU-Sim uArch: Shader 13 finished CTA #2 (18094,0), 2 CTAs running
GPGPU-Sim uArch: core: 13, cta: 2 initialized @(18095,0)
GPGPU-Sim uArch: Shader 0 finished CTA #2 (18107,0), 2 CTAs running
GPGPU-Sim uArch: core:  0, cta: 2 initialized @(18108,0)
GPGPU-Sim PTX: 10200000 instructions simulated : ctaid=(151,0,0) tid=(487,0,0)
GPGPU-Sim PTX: 10300000 instructions simulated : ctaid=(142,0,0) tid=(215,0,0)
GPGPU-Sim PTX: 10400000 instructions simulated : ctaid=(141,0,0) tid=(127,0,0)
GPGPU-Sim uArch: cycles simulated: 18500  inst.: 9956635 (ipc=538.2) sim_rate=474125 (inst/sec) elapsed = 0:0:00:21 / Tue Jan 29 09:31:42 2019
GPGPU-Sim PTX: 10500000 instructions simulated : ctaid=(135,0,0) tid=(401,0,0)
GPGPU-Sim PTX: 10600000 instructions simulated : ctaid=(148,0,0) tid=(23,0,0)
GPGPU-Sim PTX: 10700000 instructions simulated : ctaid=(150,0,0) tid=(420,0,0)
GPGPU-Sim PTX: 10800000 instructions simulated : ctaid=(160,0,0) tid=(310,0,0)
GPGPU-Sim uArch: cycles simulated: 19000  inst.: 10329043 (ipc=543.6) sim_rate=469501 (inst/sec) elapsed = 0:0:00:22 / Tue Jan 29 09:31:43 2019
GPGPU-Sim PTX: 10900000 instructions simulated : ctaid=(172,0,0) tid=(228,0,0)
GPGPU-Sim uArch: Shader 3 finished CTA #0 (19168,0), 2 CTAs running
GPGPU-Sim uArch: core:  3, cta: 0 initialized @(19169,0)
GPGPU-Sim PTX: 11000000 instructions simulated : ctaid=(137,0,0) tid=(15,0,0)
GPGPU-Sim PTX: 11100000 instructions simulated : ctaid=(144,0,0) tid=(216,0,0)
GPGPU-Sim uArch: Shader 8 finished CTA #0 (19388,0), 2 CTAs running
GPGPU-Sim uArch: core:  8, cta: 0 initialized @(19389,0)
GPGPU-Sim PTX: 11200000 instructions simulated : ctaid=(139,0,0) tid=(75,0,0)
GPGPU-Sim PTX: 11300000 instructions simulated : ctaid=(161,0,0) tid=(13,0,0)
GPGPU-Sim uArch: Shader 5 finished CTA #0 (19603,0), 2 CTAs running
GPGPU-Sim uArch: core:  5, cta: 0 initialized @(19604,0)
GPGPU-Sim uArch: Shader 14 finished CTA #0 (19683,0), 2 CTAs running
GPGPU-Sim uArch: core: 14, cta: 0 initialized @(19684,0)
GPGPU-Sim PTX: 11400000 instructions simulated : ctaid=(146,0,0) tid=(331,0,0)
GPGPU-Sim PTX: 11500000 instructions simulated : ctaid=(172,0,0) tid=(141,0,0)
GPGPU-Sim PTX: 11600000 instructions simulated : ctaid=(154,0,0) tid=(57,0,0)
GPGPU-Sim uArch: cycles simulated: 20000  inst.: 11070912 (ipc=553.5) sim_rate=481344 (inst/sec) elapsed = 0:0:00:23 / Tue Jan 29 09:31:44 2019
GPGPU-Sim PTX: 11700000 instructions simulated : ctaid=(139,0,0) tid=(197,0,0)
GPGPU-Sim uArch: Shader 4 finished CTA #0 (20201,0), 2 CTAs running
GPGPU-Sim uArch: core:  4, cta: 0 initialized @(20202,0)
GPGPU-Sim uArch: Shader 7 finished CTA #0 (20233,0), 2 CTAs running
GPGPU-Sim uArch: core:  7, cta: 0 initialized @(20234,0)
GPGPU-Sim uArch: Shader 9 finished CTA #0 (20263,0), 2 CTAs running
GPGPU-Sim uArch: core:  9, cta: 0 initialized @(20264,0)
GPGPU-Sim PTX: 11800000 instructions simulated : ctaid=(170,0,0) tid=(46,0,0)
GPGPU-Sim PTX: 11900000 instructions simulated : ctaid=(183,0,0) tid=(309,0,0)
GPGPU-Sim uArch: Shader 6 finished CTA #0 (20449,0), 2 CTAs running
GPGPU-Sim uArch: core:  6, cta: 0 initialized @(20450,0)
GPGPU-Sim uArch: Shader 2 finished CTA #0 (20473,0), 2 CTAs running
GPGPU-Sim uArch: core:  2, cta: 0 initialized @(20474,0)
GPGPU-Sim uArch: Shader 11 finished CTA #0 (20485,0), 2 CTAs running
GPGPU-Sim uArch: core: 11, cta: 0 initialized @(20486,0)
GPGPU-Sim uArch: cycles simulated: 20500  inst.: 11423169 (ipc=557.2) sim_rate=475965 (inst/sec) elapsed = 0:0:00:24 / Tue Jan 29 09:31:45 2019
GPGPU-Sim PTX: 12000000 instructions simulated : ctaid=(162,0,0) tid=(274,0,0)
GPGPU-Sim uArch: Shader 1 finished CTA #0 (20596,0), 2 CTAs running
GPGPU-Sim uArch: core:  1, cta: 0 initialized @(20597,0)
GPGPU-Sim PTX: 12100000 instructions simulated : ctaid=(147,0,0) tid=(432,0,0)
GPGPU-Sim PTX: 12200000 instructions simulated : ctaid=(167,0,0) tid=(410,0,0)
GPGPU-Sim uArch: Shader 10 finished CTA #0 (20900,0), 2 CTAs running
GPGPU-Sim uArch: core: 10, cta: 0 initialized @(20901,0)
GPGPU-Sim PTX: 12300000 instructions simulated : ctaid=(153,0,0) tid=(24,0,0)
GPGPU-Sim uArch: cycles simulated: 21000  inst.: 11769935 (ipc=560.5) sim_rate=470797 (inst/sec) elapsed = 0:0:00:25 / Tue Jan 29 09:31:46 2019
GPGPU-Sim uArch: Shader 9 finished CTA #1 (21009,0), 2 CTAs running
GPGPU-Sim uArch: core:  9, cta: 1 initialized @(21010,0)
GPGPU-Sim uArch: Shader 3 finished CTA #1 (21024,0), 2 CTAs running
GPGPU-Sim uArch: core:  3, cta: 1 initialized @(21025,0)
GPGPU-Sim uArch: Shader 5 finished CTA #1 (21038,0), 2 CTAs running
GPGPU-Sim uArch: core:  5, cta: 1 initialized @(21039,0)
GPGPU-Sim PTX: 12400000 instructions simulated : ctaid=(175,0,0) tid=(222,0,0)
GPGPU-Sim uArch: Shader 12 finished CTA #0 (21097,0), 2 CTAs running
GPGPU-Sim uArch: core: 12, cta: 0 initialized @(21098,0)
GPGPU-Sim PTX: 12500000 instructions simulated : ctaid=(154,0,0) tid=(451,0,0)
GPGPU-Sim uArch: Shader 14 finished CTA #1 (21239,0), 2 CTAs running
GPGPU-Sim uArch: core: 14, cta: 1 initialized @(21240,0)
GPGPU-Sim uArch: Shader 8 finished CTA #1 (21319,0), 2 CTAs running
GPGPU-Sim uArch: core:  8, cta: 1 initialized @(21320,0)
GPGPU-Sim uArch: Shader 2 finished CTA #1 (21351,0), 2 CTAs running
GPGPU-Sim PTX: 12600000 instructions simulated : ctaid=(165,0,0) tid=(483,0,0)
GPGPU-Sim uArch: core:  2, cta: 1 initialized @(21352,0)
GPGPU-Sim uArch: cycles simulated: 21500  inst.: 12116860 (ipc=563.6) sim_rate=466033 (inst/sec) elapsed = 0:0:00:26 / Tue Jan 29 09:31:47 2019
GPGPU-Sim PTX: 12700000 instructions simulated : ctaid=(166,0,0) tid=(465,0,0)
GPGPU-Sim uArch: Shader 7 finished CTA #1 (21516,0), 2 CTAs running
GPGPU-Sim uArch: core:  7, cta: 1 initialized @(21517,0)
GPGPU-Sim uArch: Shader 11 finished CTA #1 (21528,0), 2 CTAs running
GPGPU-Sim uArch: core: 11, cta: 1 initialized @(21529,0)
GPGPU-Sim uArch: Shader 10 finished CTA #1 (21531,0), 2 CTAs running
GPGPU-Sim uArch: core: 10, cta: 1 initialized @(21532,0)
GPGPU-Sim uArch: Shader 13 finished CTA #0 (21648,0), 2 CTAs running
GPGPU-Sim uArch: core: 13, cta: 0 initialized @(21649,0)
GPGPU-Sim PTX: 12800000 instructions simulated : ctaid=(177,0,0) tid=(455,0,0)
GPGPU-Sim uArch: Shader 1 finished CTA #1 (21784,0), 2 CTAs running
GPGPU-Sim uArch: core:  1, cta: 1 initialized @(21785,0)
GPGPU-Sim uArch: Shader 0 finished CTA #0 (21840,0), 2 CTAs running
GPGPU-Sim uArch: core:  0, cta: 0 initialized @(21841,0)
GPGPU-Sim uArch: Shader 9 finished CTA #2 (21916,0), 2 CTAs running
GPGPU-Sim uArch: core:  9, cta: 2 initialized @(21917,0)
GPGPU-Sim PTX: 12900000 instructions simulated : ctaid=(205,0,0) tid=(326,0,0)
GPGPU-Sim uArch: Shader 12 finished CTA #1 (21948,0), 2 CTAs running
GPGPU-Sim uArch: core: 12, cta: 1 initialized @(21949,0)
GPGPU-Sim uArch: Shader 4 finished CTA #1 (21962,0), 2 CTAs running
GPGPU-Sim uArch: core:  4, cta: 1 initialized @(21963,0)
GPGPU-Sim uArch: Shader 6 finished CTA #1 (21966,0), 2 CTAs running
GPGPU-Sim uArch: core:  6, cta: 1 initialized @(21967,0)
GPGPU-Sim uArch: cycles simulated: 22000  inst.: 12338321 (ipc=560.8) sim_rate=456974 (inst/sec) elapsed = 0:0:00:27 / Tue Jan 29 09:31:48 2019
GPGPU-Sim uArch: Shader 2 finished CTA #2 (22087,0), 2 CTAs running
GPGPU-Sim uArch: core:  2, cta: 2 initialized @(22088,0)
GPGPU-Sim uArch: Shader 8 finished CTA #2 (22133,0), 2 CTAs running
GPGPU-Sim uArch: core:  8, cta: 2 initialized @(22134,0)
GPGPU-Sim PTX: 13000000 instructions simulated : ctaid=(207,0,0) tid=(419,0,0)
GPGPU-Sim uArch: Shader 14 finished CTA #2 (22143,0), 2 CTAs running
GPGPU-Sim uArch: core: 14, cta: 2 initialized @(22144,0)
GPGPU-Sim uArch: Shader 7 finished CTA #2 (22226,0), 2 CTAs running
GPGPU-Sim uArch: core:  7, cta: 2 initialized @(22227,0)
GPGPU-Sim uArch: Shader 11 finished CTA #2 (22227,0), 2 CTAs running
GPGPU-Sim uArch: core: 11, cta: 2 initialized @(22228,0)
GPGPU-Sim uArch: Shader 3 finished CTA #2 (22279,0), 2 CTAs running
GPGPU-Sim uArch: core:  3, cta: 2 initialized @(22280,0)
GPGPU-Sim PTX: 13100000 instructions simulated : ctaid=(210,0,0) tid=(379,0,0)
GPGPU-Sim uArch: Shader 13 finished CTA #1 (22347,0), 2 CTAs running
GPGPU-Sim uArch: core: 13, cta: 1 initialized @(22348,0)
GPGPU-Sim uArch: Shader 10 finished CTA #2 (22441,0), 2 CTAs running
GPGPU-Sim uArch: core: 10, cta: 2 initialized @(22442,0)
GPGPU-Sim uArch: Shader 0 finished CTA #1 (22449,0), 2 CTAs running
GPGPU-Sim uArch: core:  0, cta: 1 initialized @(22450,0)
GPGPU-Sim uArch: Shader 1 finished CTA #2 (22451,0), 2 CTAs running
GPGPU-Sim uArch: core:  1, cta: 2 initialized @(22452,0)
GPGPU-Sim uArch: Shader 5 finished CTA #2 (22473,0), 2 CTAs running
GPGPU-Sim uArch: core:  5, cta: 2 initialized @(22474,0)
GPGPU-Sim PTX: 13200000 instructions simulated : ctaid=(183,0,0) tid=(412,0,0)
GPGPU-Sim uArch: Shader 4 finished CTA #2 (22536,0), 2 CTAs running
GPGPU-Sim uArch: core:  4, cta: 2 initialized @(22537,0)
GPGPU-Sim uArch: Shader 12 finished CTA #2 (22543,0), 2 CTAs running
GPGPU-Sim uArch: core: 12, cta: 2 initialized @(22544,0)
GPGPU-Sim uArch: Shader 6 finished CTA #2 (22549,0), 2 CTAs running
GPGPU-Sim uArch: core:  6, cta: 2 initialized @(22550,0)
GPGPU-Sim PTX: 13300000 instructions simulated : ctaid=(188,0,0) tid=(510,0,0)
GPGPU-Sim uArch: Shader 13 finished CTA #2 (22689,0), 2 CTAs running
GPGPU-Sim uArch: core: 13, cta: 2 initialized @(22690,0)
GPGPU-Sim uArch: Shader 0 finished CTA #2 (22748,0), 2 CTAs running
GPGPU-Sim uArch: core:  0, cta: 2 initialized @(22749,0)
GPGPU-Sim PTX: 13400000 instructions simulated : ctaid=(194,0,0) tid=(87,0,0)
GPGPU-Sim uArch: Shader 3 finished CTA #0 (22785,0), 2 CTAs running
GPGPU-Sim uArch: core:  3, cta: 0 initialized @(22786,0)
GPGPU-Sim PTX: 13500000 instructions simulated : ctaid=(183,0,0) tid=(23,0,0)
GPGPU-Sim PTX: 13600000 instructions simulated : ctaid=(195,0,0) tid=(443,0,0)
GPGPU-Sim uArch: cycles simulated: 23000  inst.: 12971104 (ipc=564.0) sim_rate=463253 (inst/sec) elapsed = 0:0:00:28 / Tue Jan 29 09:31:49 2019
GPGPU-Sim PTX: 13700000 instructions simulated : ctaid=(215,0,0) tid=(319,0,0)
GPGPU-Sim uArch: Shader 8 finished CTA #0 (23165,0), 2 CTAs running
GPGPU-Sim uArch: core:  8, cta: 0 initialized @(23166,0)
GPGPU-Sim uArch: Shader 5 finished CTA #0 (23173,0), 2 CTAs running
GPGPU-Sim uArch: core:  5, cta: 0 initialized @(23174,0)
GPGPU-Sim PTX: 13800000 instructions simulated : ctaid=(211,0,0) tid=(53,0,0)
GPGPU-Sim uArch: Shader 14 finished CTA #0 (23272,0), 2 CTAs running
GPGPU-Sim uArch: core: 14, cta: 0 initialized @(23273,0)
GPGPU-Sim PTX: 13900000 instructions simulated : ctaid=(206,0,0) tid=(431,0,0)
GPGPU-Sim uArch: cycles simulated: 23500  inst.: 13342821 (ipc=567.8) sim_rate=460097 (inst/sec) elapsed = 0:0:00:29 / Tue Jan 29 09:31:50 2019
GPGPU-Sim PTX: 14000000 instructions simulated : ctaid=(197,0,0) tid=(16,0,0)
GPGPU-Sim PTX: 14100000 instructions simulated : ctaid=(205,0,0) tid=(443,0,0)
GPGPU-Sim PTX: 14200000 instructions simulated : ctaid=(194,0,0) tid=(91,0,0)
GPGPU-Sim uArch: Shader 7 finished CTA #0 (23848,0), 2 CTAs running
GPGPU-Sim uArch: core:  7, cta: 0 initialized @(23849,0)
GPGPU-Sim PTX: 14300000 instructions simulated : ctaid=(208,0,0) tid=(323,0,0)
GPGPU-Sim uArch: cycles simulated: 24000  inst.: 13721230 (ipc=571.7) sim_rate=457374 (inst/sec) elapsed = 0:0:00:30 / Tue Jan 29 09:31:51 2019
GPGPU-Sim PTX: 14400000 instructions simulated : ctaid=(207,0,0) tid=(61,0,0)
GPGPU-Sim uArch: Shader 4 finished CTA #0 (24018,0), 2 CTAs running
GPGPU-Sim uArch: core:  4, cta: 0 initialized @(24019,0)
GPGPU-Sim PTX: 14500000 instructions simulated : ctaid=(223,0,0) tid=(308,0,0)
GPGPU-Sim PTX: 14600000 instructions simulated : ctaid=(204,0,0) tid=(166,0,0)
GPGPU-Sim PTX: 14700000 instructions simulated : ctaid=(214,0,0) tid=(108,0,0)
GPGPU-Sim uArch: cycles simulated: 24500  inst.: 14086115 (ipc=574.9) sim_rate=454390 (inst/sec) elapsed = 0:0:00:31 / Tue Jan 29 09:31:52 2019
GPGPU-Sim uArch: Shader 2 finished CTA #0 (24527,0), 2 CTAs running
GPGPU-Sim uArch: core:  2, cta: 0 initialized @(24528,0)
GPGPU-Sim PTX: 14800000 instructions simulated : ctaid=(226,0,0) tid=(318,0,0)
GPGPU-Sim uArch: Shader 9 finished CTA #0 (24658,0), 2 CTAs running
GPGPU-Sim uArch: core:  9, cta: 0 initialized @(24659,0)
GPGPU-Sim PTX: 14900000 instructions simulated : ctaid=(203,0,0) tid=(79,0,0)
GPGPU-Sim PTX: 15000000 instructions simulated : ctaid=(203,0,0) tid=(108,0,0)
GPGPU-Sim uArch: Shader 3 finished CTA #1 (24849,0), 2 CTAs running
GPGPU-Sim uArch: core:  3, cta: 1 initialized @(24850,0)
GPGPU-Sim uArch: Shader 11 finished CTA #0 (24853,0), 2 CTAs running
GPGPU-Sim uArch: core: 11, cta: 0 initialized @(24854,0)
GPGPU-Sim PTX: 15100000 instructions simulated : ctaid=(225,0,0) tid=(449,0,0)
GPGPU-Sim uArch: Shader 1 finished CTA #0 (24943,0), 2 CTAs running
GPGPU-Sim uArch: core:  1, cta: 0 initialized @(24944,0)
GPGPU-Sim uArch: Shader 5 finished CTA #1 (24964,0), 2 CTAs running
GPGPU-Sim uArch: core:  5, cta: 1 initialized @(24965,0)
GPGPU-Sim PTX: 15200000 instructions simulated : ctaid=(208,0,0) tid=(270,0,0)
GPGPU-Sim uArch: Shader 12 finished CTA #0 (25103,0), 2 CTAs running
GPGPU-Sim uArch: core: 12, cta: 0 initialized @(25104,0)
GPGPU-Sim uArch: Shader 6 finished CTA #0 (25145,0), 2 CTAs running
GPGPU-Sim uArch: core:  6, cta: 0 initialized @(25146,0)
GPGPU-Sim uArch: Shader 10 finished CTA #0 (25190,0), 2 CTAs running
GPGPU-Sim uArch: core: 10, cta: 0 initialized @(25191,0)
GPGPU-Sim PTX: 15300000 instructions simulated : ctaid=(197,0,0) tid=(498,0,0)
GPGPU-Sim PTX: 15400000 instructions simulated : ctaid=(236,0,0) tid=(313,0,0)
GPGPU-Sim uArch: Shader 14 finished CTA #1 (25445,0), 2 CTAs running
GPGPU-Sim uArch: core: 14, cta: 1 initialized @(25446,0)
GPGPU-Sim PTX: 15500000 instructions simulated : ctaid=(218,0,0) tid=(375,0,0)
GPGPU-Sim uArch: cycles simulated: 25500  inst.: 14805547 (ipc=580.6) sim_rate=462673 (inst/sec) elapsed = 0:0:00:32 / Tue Jan 29 09:31:53 2019
GPGPU-Sim PTX: 15600000 instructions simulated : ctaid=(198,0,0) tid=(358,0,0)
GPGPU-Sim uArch: Shader 7 finished CTA #1 (25620,0), 2 CTAs running
GPGPU-Sim uArch: core:  7, cta: 1 initialized @(25621,0)
GPGPU-Sim uArch: Shader 9 finished CTA #1 (25634,0), 2 CTAs running
GPGPU-Sim uArch: core:  9, cta: 1 initialized @(25635,0)
GPGPU-Sim uArch: Shader 8 finished CTA #1 (25669,0), 2 CTAs running
GPGPU-Sim uArch: core:  8, cta: 1 initialized @(25670,0)
GPGPU-Sim PTX: 15700000 instructions simulated : ctaid=(212,0,0) tid=(0,0,0)
GPGPU-Sim PTX: 15800000 instructions simulated : ctaid=(220,0,0) tid=(114,0,0)
GPGPU-Sim uArch: Shader 11 finished CTA #1 (25885,0), 2 CTAs running
GPGPU-Sim uArch: core: 11, cta: 1 initialized @(25886,0)
GPGPU-Sim uArch: Shader 2 finished CTA #1 (25946,0), 2 CTAs running
GPGPU-Sim uArch: core:  2, cta: 1 initialized @(25947,0)
GPGPU-Sim uArch: cycles simulated: 26000  inst.: 15165200 (ipc=583.3) sim_rate=459551 (inst/sec) elapsed = 0:0:00:33 / Tue Jan 29 09:31:54 2019
GPGPU-Sim PTX: 15900000 instructions simulated : ctaid=(223,0,0) tid=(435,0,0)
GPGPU-Sim uArch: Shader 1 finished CTA #1 (26040,0), 2 CTAs running
GPGPU-Sim uArch: core:  1, cta: 1 initialized @(26041,0)
GPGPU-Sim uArch: Shader 0 finished CTA #0 (26088,0), 2 CTAs running
GPGPU-Sim uArch: core:  0, cta: 0 initialized @(26089,0)
GPGPU-Sim uArch: Shader 4 finished CTA #1 (26094,0), 2 CTAs running
GPGPU-Sim uArch: core:  4, cta: 1 initialized @(26095,0)
GPGPU-Sim PTX: 16000000 instructions simulated : ctaid=(229,0,0) tid=(22,0,0)
GPGPU-Sim uArch: Shader 9 finished CTA #2 (26258,0), 2 CTAs running
GPGPU-Sim uArch: core:  9, cta: 2 initialized @(26259,0)
GPGPU-Sim uArch: Shader 13 finished CTA #0 (26270,0), 2 CTAs running
GPGPU-Sim uArch: core: 13, cta: 0 initialized @(26271,0)
GPGPU-Sim PTX: 16100000 instructions simulated : ctaid=(216,0,0) tid=(237,0,0)
GPGPU-Sim uArch: Shader 6 finished CTA #1 (26344,0), 2 CTAs running
GPGPU-Sim uArch: core:  6, cta: 1 initialized @(26345,0)
GPGPU-Sim uArch: Shader 12 finished CTA #1 (26425,0), 2 CTAs running
GPGPU-Sim uArch: core: 12, cta: 1 initialized @(26426,0)
GPGPU-Sim PTX: 16200000 instructions simulated : ctaid=(252,0,0) tid=(71,0,0)
GPGPU-Sim uArch: cycles simulated: 26500  inst.: 15477546 (ipc=584.1) sim_rate=455221 (inst/sec) elapsed = 0:0:00:34 / Tue Jan 29 09:31:55 2019
GPGPU-Sim uArch: Shader 10 finished CTA #1 (26575,0), 2 CTAs running
GPGPU-Sim uArch: core: 10, cta: 1 initialized @(26576,0)
GPGPU-Sim PTX: 16300000 instructions simulated : ctaid=(233,0,0) tid=(103,0,0)
GPGPU-Sim uArch: Shader 2 finished CTA #2 (26627,0), 2 CTAs running
GPGPU-Sim uArch: core:  2, cta: 2 initialized @(26628,0)
GPGPU-Sim uArch: Shader 8 finished CTA #2 (26633,0), 2 CTAs running
GPGPU-Sim uArch: core:  8, cta: 2 initialized @(26634,0)
GPGPU-Sim uArch: Shader 14 finished CTA #2 (26656,0), 2 CTAs running
GPGPU-Sim uArch: core: 14, cta: 2 initialized @(26657,0)
GPGPU-Sim uArch: Shader 0 finished CTA #1 (26693,0), 2 CTAs running
GPGPU-Sim uArch: core:  0, cta: 1 initialized @(26694,0)
GPGPU-Sim uArch: Shader 3 finished CTA #2 (26706,0), 2 CTAs running
GPGPU-Sim uArch: core:  3, cta: 2 initialized @(26707,0)
GPGPU-Sim PTX: 16400000 instructions simulated : ctaid=(257,0,0) tid=(7,0,0)
GPGPU-Sim uArch: Shader 13 finished CTA #1 (26829,0), 2 CTAs running
GPGPU-Sim uArch: core: 13, cta: 1 initialized @(26830,0)
GPGPU-Sim uArch: Shader 7 finished CTA #2 (26855,0), 2 CTAs running
GPGPU-Sim uArch: core:  7, cta: 2 initialized @(26856,0)
GPGPU-Sim uArch: Shader 11 finished CTA #2 (26861,0), 2 CTAs running
GPGPU-Sim uArch: core: 11, cta: 2 initialized @(26862,0)
GPGPU-Sim PTX: 16500000 instructions simulated : ctaid=(259,0,0) tid=(295,0,0)
GPGPU-Sim uArch: Shader 5 finished CTA #2 (26966,0), 2 CTAs running
GPGPU-Sim uArch: core:  5, cta: 2 initialized @(26967,0)
GPGPU-Sim uArch: cycles simulated: 27000  inst.: 15806857 (ipc=585.4) sim_rate=451624 (inst/sec) elapsed = 0:0:00:35 / Tue Jan 29 09:31:56 2019
GPGPU-Sim PTX: 16600000 instructions simulated : ctaid=(242,0,0) tid=(159,0,0)
GPGPU-Sim uArch: Shader 6 finished CTA #2 (27187,0), 2 CTAs running
GPGPU-Sim uArch: core:  6, cta: 2 initialized @(27188,0)
GPGPU-Sim uArch: Shader 12 finished CTA #2 (27203,0), 2 CTAs running
GPGPU-Sim uArch: core: 12, cta: 2 initialized @(27204,0)
GPGPU-Sim PTX: 16700000 instructions simulated : ctaid=(229,0,0) tid=(462,0,0)
GPGPU-Sim uArch: Shader 1 finished CTA #2 (27389,0), 2 CTAs running
GPGPU-Sim uArch: Shader 10 finished CTA #2 (27389,0), 2 CTAs running
GPGPU-Sim uArch: core:  1, cta: 2 initialized @(27390,0)
GPGPU-Sim uArch: core: 10, cta: 2 initialized @(27390,0)
GPGPU-Sim uArch: Shader 4 finished CTA #2 (27413,0), 2 CTAs running
GPGPU-Sim uArch: core:  4, cta: 2 initialized @(27414,0)
GPGPU-Sim uArch: Shader 0 finished CTA #2 (27423,0), 2 CTAs running
GPGPU-Sim uArch: core:  0, cta: 2 initialized @(27424,0)
GPGPU-Sim uArch: Shader 3 finished CTA #0 (27433,0), 2 CTAs running
GPGPU-Sim uArch: core:  3, cta: 0 initialized @(27434,0)
GPGPU-Sim uArch: Shader 14 finished CTA #0 (27449,0), 2 CTAs running
GPGPU-Sim uArch: core: 14, cta: 0 initialized @(27450,0)
GPGPU-Sim PTX: 16800000 instructions simulated : ctaid=(245,0,0) tid=(355,0,0)
GPGPU-Sim uArch: Shader 8 finished CTA #0 (27462,0), 2 CTAs running
GPGPU-Sim uArch: core:  8, cta: 0 initialized @(27463,0)
GPGPU-Sim uArch: Shader 13 finished CTA #2 (27464,0), 2 CTAs running
GPGPU-Sim uArch: core: 13, cta: 2 initialized @(27465,0)
GPGPU-Sim uArch: Shader 5 finished CTA #0 (27515,0), 2 CTAs running
GPGPU-Sim uArch: core:  5, cta: 0 initialized @(27516,0)
GPGPU-Sim PTX: 16900000 instructions simulated : ctaid=(271,0,0) tid=(91,0,0)
GPGPU-Sim PTX: 17000000 instructions simulated : ctaid=(238,0,0) tid=(81,0,0)
GPGPU-Sim uArch: Shader 7 finished CTA #0 (27815,0), 2 CTAs running
GPGPU-Sim uArch: core:  7, cta: 0 initialized @(27816,0)
GPGPU-Sim uArch: Shader 4 finished CTA #0 (27834,0), 2 CTAs running
GPGPU-Sim uArch: core:  4, cta: 0 initialized @(27835,0)
GPGPU-Sim PTX: 17100000 instructions simulated : ctaid=(259,0,0) tid=(235,0,0)
GPGPU-Sim PTX: 17200000 instructions simulated : ctaid=(245,0,0) tid=(145,0,0)
GPGPU-Sim uArch: cycles simulated: 28000  inst.: 16433357 (ipc=586.9) sim_rate=456482 (inst/sec) elapsed = 0:0:00:36 / Tue Jan 29 09:31:57 2019
GPGPU-Sim PTX: 17300000 instructions simulated : ctaid=(269,0,0) tid=(45,0,0)
GPGPU-Sim PTX: 17400000 instructions simulated : ctaid=(251,0,0) tid=(367,0,0)
GPGPU-Sim uArch: Shader 2 finished CTA #0 (28277,0), 2 CTAs running
GPGPU-Sim uArch: core:  2, cta: 0 initialized @(28278,0)
GPGPU-Sim uArch: Shader 1 finished CTA #0 (28282,0), 2 CTAs running
GPGPU-Sim uArch: core:  1, cta: 0 initialized @(28283,0)
GPGPU-Sim uArch: Shader 3 finished CTA #1 (28336,0), 2 CTAs running
GPGPU-Sim uArch: core:  3, cta: 1 initialized @(28337,0)
GPGPU-Sim PTX: 17500000 instructions simulated : ctaid=(278,0,0) tid=(471,0,0)
GPGPU-Sim uArch: Shader 11 finished CTA #0 (28415,0), 2 CTAs running
GPGPU-Sim uArch: core: 11, cta: 0 initialized @(28416,0)
GPGPU-Sim PTX: 17600000 instructions simulated : ctaid=(243,0,0) tid=(487,0,0)
GPGPU-Sim uArch: cycles simulated: 28500  inst.: 16804155 (ipc=589.6) sim_rate=454166 (inst/sec) elapsed = 0:0:00:37 / Tue Jan 29 09:31:58 2019
GPGPU-Sim uArch: Shader 5 finished CTA #1 (28504,0), 2 CTAs running
GPGPU-Sim uArch: core:  5, cta: 1 initialized @(28505,0)
GPGPU-Sim uArch: Shader 6 finished CTA #0 (28553,0), 2 CTAs running
GPGPU-Sim uArch: core:  6, cta: 0 initialized @(28554,0)
GPGPU-Sim PTX: 17700000 instructions simulated : ctaid=(279,0,0) tid=(53,0,0)
GPGPU-Sim uArch: Shader 12 finished CTA #0 (28619,0), 2 CTAs running
GPGPU-Sim uArch: core: 12, cta: 0 initialized @(28620,0)
GPGPU-Sim uArch: Shader 9 finished CTA #0 (28683,0), 2 CTAs running
GPGPU-Sim uArch: core:  9, cta: 0 initialized @(28684,0)
GPGPU-Sim PTX: 17800000 instructions simulated : ctaid=(271,0,0) tid=(465,0,0)
GPGPU-Sim PTX: 17900000 instructions simulated : ctaid=(247,0,0) tid=(62,0,0)
GPGPU-Sim PTX: 18000000 instructions simulated : ctaid=(268,0,0) tid=(331,0,0)
GPGPU-Sim uArch: cycles simulated: 29000  inst.: 17185148 (ipc=592.6) sim_rate=452240 (inst/sec) elapsed = 0:0:00:38 / Tue Jan 29 09:31:59 2019
GPGPU-Sim PTX: 18100000 instructions simulated : ctaid=(264,0,0) tid=(35,0,0)
GPGPU-Sim PTX: 18200000 instructions simulated : ctaid=(263,0,0) tid=(269,0,0)
GPGPU-Sim uArch: Shader 7 finished CTA #1 (29278,0), 2 CTAs running
GPGPU-Sim uArch: core:  7, cta: 1 initialized @(29279,0)
GPGPU-Sim PTX: 18300000 instructions simulated : ctaid=(259,0,0) tid=(272,0,0)
GPGPU-Sim uArch: cycles simulated: 29500  inst.: 17556737 (ipc=595.1) sim_rate=450172 (inst/sec) elapsed = 0:0:00:39 / Tue Jan 29 09:32:00 2019
GPGPU-Sim PTX: 18400000 instructions simulated : ctaid=(256,0,0) tid=(162,0,0)
GPGPU-Sim PTX: 18500000 instructions simulated : ctaid=(270,0,0) tid=(98,0,0)
GPGPU-Sim uArch: Shader 9 finished CTA #1 (29668,0), 2 CTAs running
GPGPU-Sim uArch: core:  9, cta: 1 initialized @(29669,0)
GPGPU-Sim uArch: Shader 4 finished CTA #1 (29746,0), 2 CTAs running
GPGPU-Sim uArch: core:  4, cta: 1 initialized @(29747,0)
GPGPU-Sim PTX: 18600000 instructions simulated : ctaid=(273,0,0) tid=(454,0,0)
GPGPU-Sim uArch: Shader 2 finished CTA #1 (29870,0), 2 CTAs running
GPGPU-Sim uArch: core:  2, cta: 1 initialized @(29871,0)
GPGPU-Sim uArch: Shader 10 finished CTA #0 (29872,0), 2 CTAs running
GPGPU-Sim uArch: core: 10, cta: 0 initialized @(29873,0)
GPGPU-Sim PTX: 18700000 instructions simulated : ctaid=(259,0,0) tid=(189,0,0)
GPGPU-Sim uArch: Shader 14 finished CTA #1 (30021,0), 2 CTAs running
GPGPU-Sim uArch: core: 14, cta: 1 initialized @(30022,0)
GPGPU-Sim PTX: 18800000 instructions simulated : ctaid=(287,0,0) tid=(217,0,0)
GPGPU-Sim uArch: Shader 11 finished CTA #1 (30119,0), 2 CTAs running
GPGPU-Sim uArch: core: 11, cta: 1 initialized @(30120,0)
GPGPU-Sim PTX: 18900000 instructions simulated : ctaid=(281,0,0) tid=(431,0,0)
GPGPU-Sim uArch: Shader 0 finished CTA #0 (30196,0), 2 CTAs running
GPGPU-Sim uArch: core:  0, cta: 0 initialized @(30197,0)
GPGPU-Sim uArch: Shader 8 finished CTA #1 (30268,0), 2 CTAs running
GPGPU-Sim uArch: core:  8, cta: 1 initialized @(30269,0)
GPGPU-Sim PTX: 19000000 instructions simulated : ctaid=(266,0,0) tid=(367,0,0)
GPGPU-Sim uArch: Shader 12 finished CTA #1 (30359,0), 2 CTAs running
GPGPU-Sim uArch: core: 12, cta: 1 initialized @(30360,0)
GPGPU-Sim uArch: Shader 1 finished CTA #1 (30407,0), 2 CTAs running
GPGPU-Sim uArch: core:  1, cta: 1 initialized @(30408,0)
GPGPU-Sim uArch: Shader 6 finished CTA #1 (30421,0), 2 CTAs running
GPGPU-Sim uArch: core:  6, cta: 1 initialized @(30422,0)
GPGPU-Sim PTX: 19100000 instructions simulated : ctaid=(295,0,0) tid=(83,0,0)
GPGPU-Sim uArch: cycles simulated: 30500  inst.: 18279135 (ipc=599.3) sim_rate=456978 (inst/sec) elapsed = 0:0:00:40 / Tue Jan 29 09:32:01 2019
GPGPU-Sim uArch: Shader 9 finished CTA #2 (30512,0), 2 CTAs running
GPGPU-Sim uArch: core:  9, cta: 2 initialized @(30513,0)
GPGPU-Sim PTX: 19200000 instructions simulated : ctaid=(270,0,0) tid=(83,0,0)
GPGPU-Sim uArch: Shader 13 finished CTA #0 (30622,0), 2 CTAs running
GPGPU-Sim uArch: core: 13, cta: 0 initialized @(30623,0)
GPGPU-Sim PTX: 19300000 instructions simulated : ctaid=(277,0,0) tid=(52,0,0)
GPGPU-Sim uArch: Shader 2 finished CTA #2 (30772,0), 2 CTAs running
GPGPU-Sim uArch: core:  2, cta: 2 initialized @(30773,0)
GPGPU-Sim PTX: 19400000 instructions simulated : ctaid=(296,0,0) tid=(95,0,0)
GPGPU-Sim uArch: Shader 7 finished CTA #2 (30867,0), 2 CTAs running
GPGPU-Sim uArch: core:  7, cta: 2 initialized @(30868,0)
GPGPU-Sim uArch: Shader 10 finished CTA #1 (30952,0), 2 CTAs running
GPGPU-Sim uArch: core: 10, cta: 1 initialized @(30953,0)
GPGPU-Sim PTX: 19500000 instructions simulated : ctaid=(278,0,0) tid=(63,0,0)
GPGPU-Sim uArch: cycles simulated: 31000  inst.: 18642249 (ipc=601.4) sim_rate=454689 (inst/sec) elapsed = 0:0:00:41 / Tue Jan 29 09:32:02 2019
GPGPU-Sim uArch: Shader 5 finished CTA #2 (31081,0), 2 CTAs running
GPGPU-Sim uArch: core:  5, cta: 2 initialized @(31082,0)
GPGPU-Sim PTX: 19600000 instructions simulated : ctaid=(291,0,0) tid=(161,0,0)
GPGPU-Sim uArch: Shader 8 finished CTA #2 (31153,0), 2 CTAs running
GPGPU-Sim uArch: core:  8, cta: 2 initialized @(31154,0)
GPGPU-Sim PTX: 19700000 instructions simulated : ctaid=(277,0,0) tid=(405,0,0)
GPGPU-Sim uArch: Shader 14 finished CTA #2 (31236,0), 2 CTAs running
GPGPU-Sim uArch: core: 14, cta: 2 initialized @(31237,0)
GPGPU-Sim uArch: Shader 0 finished CTA #1 (31253,0), 2 CTAs running
GPGPU-Sim uArch: core:  0, cta: 1 initialized @(31254,0)
GPGPU-Sim uArch: Shader 3 finished CTA #2 (31263,0), 2 CTAs running
GPGPU-Sim uArch: core:  3, cta: 2 initialized @(31264,0)
GPGPU-Sim uArch: Shader 13 finished CTA #1 (31277,0), 2 CTAs running
GPGPU-Sim uArch: core: 13, cta: 1 initialized @(31278,0)
GPGPU-Sim uArch: Shader 11 finished CTA #2 (31307,0), 2 CTAs running
GPGPU-Sim uArch: core: 11, cta: 2 initialized @(31308,0)
GPGPU-Sim PTX: 19800000 instructions simulated : ctaid=(275,0,0) tid=(57,0,0)
GPGPU-Sim uArch: Shader 4 finished CTA #2 (31422,0), 2 CTAs running
GPGPU-Sim uArch: core:  4, cta: 2 initialized @(31423,0)
GPGPU-Sim PTX: 19900000 instructions simulated : ctaid=(296,0,0) tid=(401,0,0)
GPGPU-Sim uArch: cycles simulated: 31500  inst.: 18998474 (ipc=603.1) sim_rate=452344 (inst/sec) elapsed = 0:0:00:42 / Tue Jan 29 09:32:03 2019
GPGPU-Sim uArch: Shader 3 finished CTA #0 (31554,0), 2 CTAs running
GPGPU-Sim uArch: core:  3, cta: 0 initialized @(31555,0)
GPGPU-Sim PTX: 20000000 instructions simulated : ctaid=(275,0,0) tid=(375,0,0)
GPGPU-Sim uArch: Shader 6 finished CTA #2 (31742,0), 2 CTAs running
GPGPU-Sim uArch: core:  6, cta: 2 initialized @(31743,0)
GPGPU-Sim uArch: Shader 5 finished CTA #0 (31776,0), 2 CTAs running
GPGPU-Sim uArch: core:  5, cta: 0 initialized @(31777,0)
GPGPU-Sim uArch: Shader 1 finished CTA #2 (31818,0), 2 CTAs running
GPGPU-Sim uArch: core:  1, cta: 2 initialized @(31819,0)
GPGPU-Sim PTX: 20100000 instructions simulated : ctaid=(289,0,0) tid=(248,0,0)
GPGPU-Sim uArch: Shader 13 finished CTA #2 (31920,0), 2 CTAs running
GPGPU-Sim uArch: core: 13, cta: 2 initialized @(31921,0)
GPGPU-Sim uArch: Shader 0 finished CTA #2 (31924,0), 2 CTAs running
GPGPU-Sim uArch: Shader 14 finished CTA #0 (31924,0), 2 CTAs running
GPGPU-Sim uArch: core: 14, cta: 0 initialized @(31925,0)
GPGPU-Sim uArch: core:  0, cta: 2 initialized @(31925,0)
GPGPU-Sim uArch: Shader 12 finished CTA #2 (31942,0), 2 CTAs running
GPGPU-Sim uArch: core: 12, cta: 2 initialized @(31943,0)
GPGPU-Sim PTX: 20200000 instructions simulated : ctaid=(290,0,0) tid=(475,0,0)
[...]
gpgpu_stall_shd_mem[g_mem_st][wb_rsrv_fail] = 0
gpgpu_stall_shd_mem[l_mem_ld][mshr_rc] = 0
gpgpu_stall_shd_mem[l_mem_ld][icnt_rc] = 0
gpgpu_stall_shd_mem[l_mem_ld][wb_icnt_rc] = 0
gpgpu_stall_shd_mem[l_mem_ld][wb_rsrv_fail] = 0
gpgpu_stall_shd_mem[l_mem_st][mshr_rc] = 0
gpgpu_stall_shd_mem[l_mem_st][icnt_rc] = 0
gpgpu_stall_shd_mem[l_mem_ld][wb_icnt_rc] = 0
gpgpu_stall_shd_mem[l_mem_ld][wb_rsrv_fail] = 0
gpu_reg_bank_conflict_stalls = 0
Warp Occupancy Distribution:
Stall:170525	W0_Idle:96324	W0_Scoreboard:395133	W1:7816	W2:7816	W3:0	W4:7816	W5:0	W6:0	W7:0	W8:7816	W9:0	W10:0	W11:0	W12:0	W13:0	W14:0	W15:0	W16:7816	W17:0	W18:0	W19:0	W20:0	W21:0	W22:0	W23:0	W24:0	W25:0	W26:0	W27:0	W28:0	W29:0	W30:0	W31:0	W32:2102504
traffic_breakdown_coretomem[CONST_ACC_R] = 120 {8:15,}
traffic_breakdown_coretomem[GLOBAL_ACC_R] = 250112 {8:31264,}
traffic_breakdown_coretomem[GLOBAL_ACC_W] = 625280 {40:15632,}
traffic_breakdown_coretomem[INST_ACC_R] = 600 {8:75,}
traffic_breakdown_memtocore[CONST_ACC_R] = 1080 {72:15,}
traffic_breakdown_memtocore[GLOBAL_ACC_R] = 4251904 {136:31264,}
traffic_breakdown_memtocore[GLOBAL_ACC_W] = 125056 {8:15632,}
traffic_breakdown_memtocore[INST_ACC_R] = 10200 {136:75,}
maxmrqlatency = 199 
maxdqlatency = 0 
maxmflatency = 1037 
averagemflatency = 292 
max_icnt2mem_latency = 841 
max_icnt2sh_latency = 94142 
mrq_lat_table:25759 	2127 	1066 	856 	962 	395 	263 	19 	0 	0 	0 	0 	0 	0 	0 	0 	0 	0 	0 	0 	0 	0 	0 	0 	0 	0 	0 	0 	0 	0 	0 	0 	
dq_lat_table:0 	0 	0 	0 	0 	0 	0 	0 	0 	0 	0 	0 	0 	0 	0 	0 	0 	0 	0 	0 	0 	0 	0 	0 	0 	0 	0 	0 	0 	0 	0 	0 	
mf_lat_table:0 	0 	0 	0 	0 	0 	0 	11141 	32483 	3286 	1 	0 	0 	0 	0 	0 	0 	0 	0 	0 	0 	0 	0 	0 	0 	0 	0 	0 	0 	0 	0 	0 	
icnt2mem_lat_table:0 	0 	0 	28877 	5682 	4004 	3413 	2280 	1844 	886 	0 	0 	0 	0 	0 	0 	0 	0 	0 	0 	0 	0 	0 	0 	
icnt2sh_lat_table:0 	0 	0 	11280 	12921 	6368 	707 	3 	0 	0 	0 	0 	720 	903 	2921 	5776 	5312 	0 	0 	0 	0 	0 	0 	0 	
mf_lat_pw_table:0 	0 	0 	0 	0 	0 	0 	110 	61 	10 	0 	0 	0 	0 	0 	0 	0 	0 	0 	0 	0 	0 	0 	0 	0 	0 	0 	0 	0 	0 	0 	0 	
maximum concurrent accesses to same row:
dram[0]:        32        32        32        32        32        32        32        32        32        32        32        32        32        32        32        32 
dram[1]:        32        32        32        32        32        32        32        32        32        32        32        32        32        32        32        32 
dram[2]:        32        32        32        32        32        32        32        32        32        32        32        32        32        32        32        32 
dram[3]:        32        32        32        32        32        32        32        32        32        32        32        32        32        32        32        32 
dram[4]:        32        32        32        32        32        32        32        32        32        32        32        32        32        32        32        32 
dram[5]:        32        32        32        32        32        32        32        32        32        32        32        32        32        32        32        32 
maximum service time to same row:
dram[0]:      9737      9813      9927      9783     12194     12122     10965     10971     11703     11652     12092     12003     14578     14743      9565      9389 
dram[1]:      9739      9855      9724      9784     12039     12215     10967     10997     11697     11659     12082     12153     14581     14745      9565      9406 
dram[2]:      9739      9794      9742      9768     12181     12133     10961     10998     11719     11622     12100     11993     14634     14965      9572      9385 
dram[3]:      9766      9788      9709      9774     12103     12162     10985     11315     11719      9593     12115     12028     14694     14960      9563      9366 
dram[4]:      9753      9819      9764      9771     12151     12156     10975     11433     11647     10369     12130     12232     14739     14872      9369      9453 
dram[5]:      9753      9869      9767      9869     12151     12167     10972     11568     11651     11716     12007     12069     14741     14675      9375      9509 
average row accesses per activate:
dram[0]: 24.846153 32.000000 32.000000 32.000000 30.000000 30.000000 32.000000 32.000000 26.230770 25.692308 32.000000 32.000000 32.000000 32.000000 32.000000 32.000000 
dram[1]: 29.272728 32.000000 32.000000 32.000000 30.000000 30.000000 32.000000 32.000000 21.000000 22.266666 32.000000 32.000000 32.000000 32.000000 32.000000 32.000000 
dram[2]: 29.181818 32.000000 32.000000 32.000000 30.000000 30.181818 32.000000 32.000000 22.400000 27.750000 32.000000 32.000000 32.000000 32.000000 32.000000 32.000000 
dram[3]: 32.000000 32.000000 32.000000 32.000000 30.000000 30.181818 32.000000 32.000000 25.846153 24.500000 32.000000 32.000000 32.000000 32.000000 32.000000 32.000000 
dram[4]: 32.000000 32.000000 32.000000 32.000000 30.000000 30.181818 32.000000 32.000000 20.875000 20.235294 32.000000 32.000000 32.000000 32.000000 32.000000 32.000000 
dram[5]: 32.000000 32.000000 32.000000 32.000000 30.000000 30.181818 32.000000 32.000000 22.266666 22.933332 32.000000 32.000000 32.000000 32.000000 32.000000 32.000000 
average row locality = 31447/1043 = 30.150528
number of total memory accesses made:
dram[0]:         0         0         0         0         0         0         0         0         0         0         0         0         0         0         0         0 
dram[1]:         0         0         0         0         0         0         0         0         0         0         0         0         0         0         0         0 
dram[2]:         0         0         0         0         0         0         0         0         0         0         0         0         0         0         0         0 
dram[3]:         0         0         0         0         0         0         0         0         0         0         0         0         0         0         0         0 
dram[4]:         0         0         0         0         0         0         0         0         0         0         0         0         0         0         0         0 
dram[5]:         0         0         0         0         0         0         0         0         0         0         0         0         0         0         0         0 
total accesses: 0
min_bank_accesses = 0!
min_chip_accesses = 0!
number of total read accesses:
dram[0]:       323       320       320       320       330       330       352       352       327       324       320       320       320       320       320       320 
dram[1]:       322       320       320       320       330       330       352       352       326       324       320       320       320       320       320       320 
dram[2]:       321       320       320       320       330       332       352       352       326       324       320       320       320       320       320       320 
dram[3]:       320       320       320       320       330       332       352       352       326       326       320       320       320       320       320       320 
dram[4]:       320       320       320       320       330       332       352       352       324       326       320       320       320       320       320       320 
dram[5]:       320       320       320       320       330       332       352       352       324       326       320       320       320       320       320       320 
total reads: 31301
bank skew: 352/320 = 1.10
chip skew: 5218/5216 = 1.00
number of total write accesses:
dram[0]:         0         0         0         0         0         0         0         0        14        10         0         0         0         0         0         0 
dram[1]:         0         0         0         0         0         0         0         0        10        10         0         0         0         0         0         0 
dram[2]:         0         0         0         0         0         0         0         0        10         9         0         0         0         0         0         0 
dram[3]:         0         0         0         0         0         0         0         0        10        17         0         0         0         0         0         0 
dram[4]:         0         0         0         0         0         0         0         0        10        18         0         0         0         0         0         0 
dram[5]:         0         0         0         0         0         0         0         0        10        18         0         0         0         0         0         0 
total reads: 146
min_bank_accesses = 0!
chip skew: 28/19 = 1.47
average mf latency per bank:
dram[0]:        315       310       286       298       312       299       328       324      1326       892       292       295       318       315       336       340
dram[1]:        301       294       285       281       315       298       338       334      1158       883       310       306       325       308       336       321
dram[2]:        297       287       280       275       313       309       338       333       939       912       306       299       322       314       326       317
dram[3]:        299       290       281       282       308       305       317       327       901      2637       292       303       316       319       328       320
dram[4]:        314       291       305       281       305       316       335       338       858      2082       299       307       319       325       342       319
dram[5]:        309       298       296       284       300       320       324       344       899      1816       292       300       313       318       334       322
maximum mf latency per bank:
dram[0]:        849       668       567       598       785       676       824       836       884       671       673       612       893       908       902       908
dram[1]:        770       641       594       418       783       685       850       851       834       642       677       692       962       809      1037       872
dram[2]:        700       631       477       364       793       828       844       826       841       661       647       714       794       888       870       904
dram[3]:        647       629       487       484       819       812       815       801       832       971       554       737       885       899       959       917
dram[4]:        706       663       649       457       791       871       785       837       748       914       564       729       968       829       986       848
dram[5]:        647       606       597       495       686       904       792       811       676       832       683       590       941       819       920       893
Memory Partition 0: 
Cache L2_bank_000:
MSHR contents

Cache L2_bank_001:
MSHR contents

In Dram Latency Queue (total = 0): 
DRAM[0]: 16 bks, busW=4 BL=8 CL=12, tRRD=2 tCCD=6, tRCD=12 tRAS=28 tRP=12 tRC=40
n_cmd=124268 n_nop=113474 n_act=173 n_pre=157 n_req=5242 n_rd=10436 n_write=28 bw_util=0.1684
n_activity=54681 dram_eff=0.3827
bk0: 646a 122288i bk1: 640a 122115i bk2: 640a 122207i bk3: 640a 121978i bk4: 660a 122249i bk5: 660a 122218i bk6: 704a 121976i bk7: 704a 121583i bk8: 654a 122105i bk9: 648a 121881i bk10: 640a 122036i bk11: 640a 121545i bk12: 640a 122029i bk13: 640a 122052i bk14: 640a 122222i bk15: 640a 121833i 
dram_util_bins: 0 0 0 0 0 0 0 0 0 0
dram_eff_bins: 0 0 0 0 0 0 0 0 0 0
mrqq: max=16 avg=0.147206
Memory Partition 1: 
Cache L2_bank_002:
MSHR contents

Cache L2_bank_003:
MSHR contents

In Dram Latency Queue (total = 0): 
DRAM[1]: 16 bks, busW=4 BL=8 CL=12, tRRD=2 tCCD=6, tRCD=12 tRAS=28 tRP=12 tRC=40
n_cmd=124268 n_nop=113476 n_act=176 n_pre=160 n_req=5236 n_rd=10432 n_write=24 bw_util=0.1683
n_activity=53998 dram_eff=0.3873
bk0: 644a 122295i bk1: 640a 122124i bk2: 640a 122204i bk3: 640a 121987i bk4: 660a 122366i bk5: 660a 122110i bk6: 704a 121995i bk7: 704a 121290i bk8: 652a 121967i bk9: 648a 121695i bk10: 640a 121672i bk11: 640a 121449i bk12: 640a 122127i bk13: 640a 121970i bk14: 640a 122234i bk15: 640a 121788i 
dram_util_bins: 0 0 0 0 0 0 0 0 0 0
dram_eff_bins: 0 0 0 0 0 0 0 0 0 0
mrqq: max=16 avg=0.137525
Memory Partition 2: 
Cache L2_bank_004:
MSHR contents

Cache L2_bank_005:
MSHR contents

In Dram Latency Queue (total = 0): 
DRAM[2]: 16 bks, busW=4 BL=8 CL=12, tRRD=2 tCCD=6, tRCD=12 tRAS=28 tRP=12 tRC=40
n_cmd=124268 n_nop=113484 n_act=172 n_pre=156 n_req=5236 n_rd=10434 n_write=22 bw_util=0.1683
n_activity=54074 dram_eff=0.3867
bk0: 642a 122367i bk1: 640a 122079i bk2: 640a 122305i bk3: 640a 121958i bk4: 660a 122404i bk5: 664a 122106i bk6: 704a 121936i bk7: 704a 121537i bk8: 652a 122093i bk9: 648a 121829i bk10: 640a 121821i bk11: 640a 121522i bk12: 640a 121901i bk13: 640a 122064i bk14: 640a 122305i bk15: 640a 121851i 
dram_util_bins: 0 0 0 0 0 0 0 0 0 0
dram_eff_bins: 0 0 0 0 0 0 0 0 0 0
mrqq: max=16 avg=0.135844
Memory Partition 3: 
Cache L2_bank_006:
MSHR contents

Cache L2_bank_007:
MSHR contents

In Dram Latency Queue (total = 0): 
DRAM[3]: 16 bks, busW=4 BL=8 CL=12, tRRD=2 tCCD=6, tRCD=12 tRAS=28 tRP=12 tRC=40
n_cmd=124268 n_nop=113475 n_act=171 n_pre=155 n_req=5245 n_rd=10436 n_write=31 bw_util=0.1685
n_activity=55248 dram_eff=0.3789
bk0: 640a 122424i bk1: 640a 122148i bk2: 640a 122186i bk3: 640a 122045i bk4: 660a 122371i bk5: 664a 122168i bk6: 704a 122040i bk7: 704a 121631i bk8: 652a 122137i bk9: 652a 121751i bk10: 640a 122005i bk11: 640a 121661i bk12: 640a 122223i bk13: 640a 122027i bk14: 640a 122197i bk15: 640a 121970i 
dram_util_bins: 0 0 0 0 0 0 0 0 0 0
dram_eff_bins: 0 0 0 0 0 0 0 0 0 0
mrqq: max=16 avg=0.12259
Memory Partition 4: 
Cache L2_bank_008:
MSHR contents

Cache L2_bank_009:
MSHR contents

In Dram Latency Queue (total = 0): 
DRAM[4]: 16 bks, busW=4 BL=8 CL=12, tRRD=2 tCCD=6, tRCD=12 tRAS=28 tRP=12 tRC=40
n_cmd=124268 n_nop=113466 n_act=177 n_pre=161 n_req=5244 n_rd=10432 n_write=32 bw_util=0.1684
n_activity=54149 dram_eff=0.3865
bk0: 640a 122366i bk1: 640a 122206i bk2: 640a 122129i bk3: 640a 121842i bk4: 660a 122266i bk5: 664a 122102i bk6: 704a 121917i bk7: 704a 121539i bk8: 648a 122062i bk9: 652a 121647i bk10: 640a 121898i bk11: 640a 121593i bk12: 640a 122064i bk13: 640a 121970i bk14: 640a 122263i bk15: 640a 121951i 
dram_util_bins: 0 0 0 0 0 0 0 0 0 0
dram_eff_bins: 0 0 0 0 0 0 0 0 0 0
mrqq: max=16 avg=0.162512
Memory Partition 5: 
Cache L2_bank_010:
MSHR contents

Cache L2_bank_011:
MSHR contents

In Dram Latency Queue (total = 0): 
DRAM[5]: 16 bks, busW=4 BL=8 CL=12, tRRD=2 tCCD=6, tRCD=12 tRAS=28 tRP=12 tRC=40
n_cmd=124268 n_nop=113472 n_act=174 n_pre=158 n_req=5244 n_rd=10432 n_write=32 bw_util=0.1684
n_activity=54598 dram_eff=0.3833
bk0: 640a 122396i bk1: 640a 122061i bk2: 640a 122225i bk3: 640a 121992i bk4: 660a 122197i bk5: 664a 122146i bk6: 704a 121874i bk7: 704a 121482i bk8: 648a 122194i bk9: 652a 121742i bk10: 640a 121778i bk11: 640a 121527i bk12: 640a 121981i bk13: 640a 122004i bk14: 640a 122239i bk15: 640a 121839i 
dram_util_bins: 0 0 0 0 0 0 0 0 0 0
dram_eff_bins: 0 0 0 0 0 0 0 0 0 0
mrqq: max=16 avg=0.14488

========= L2 cache stats =========
L2_cache_bank[0]: Access = 3947, Miss = 2612, Miss_rate = 0.662, Pending_hits = 18, Reservation_fails = 659
L2_cache_bank[1]: Access = 3628, Miss = 2606, Miss_rate = 0.718, Pending_hits = 6, Reservation_fails = 265
L2_cache_bank[2]: Access = 3660, Miss = 2610, Miss_rate = 0.713, Pending_hits = 11, Reservation_fails = 424
L2_cache_bank[3]: Access = 3628, Miss = 2606, Miss_rate = 0.718, Pending_hits = 6, Reservation_fails = 279
L2_cache_bank[4]: Access = 3645, Miss = 2609, Miss_rate = 0.716, Pending_hits = 9, Reservation_fails = 355
L2_cache_bank[5]: Access = 3630, Miss = 2608, Miss_rate = 0.718, Pending_hits = 6, Reservation_fails = 324
L2_cache_bank[6]: Access = 3630, Miss = 2608, Miss_rate = 0.718, Pending_hits = 6, Reservation_fails = 295
L2_cache_bank[7]: Access = 4654, Miss = 2610, Miss_rate = 0.561, Pending_hits = 11, Reservation_fails = 406
L2_cache_bank[8]: Access = 3628, Miss = 2606, Miss_rate = 0.718, Pending_hits = 6, Reservation_fails = 307
L2_cache_bank[9]: Access = 4654, Miss = 2610, Miss_rate = 0.561, Pending_hits = 12, Reservation_fails = 564
L2_cache_bank[10]: Access = 3628, Miss = 2606, Miss_rate = 0.718, Pending_hits = 6, Reservation_fails = 262
L2_cache_bank[11]: Access = 4654, Miss = 2610, Miss_rate = 0.561, Pending_hits = 12, Reservation_fails = 453
L2_total_cache_accesses = 46986
L2_total_cache_misses = 31301
L2_total_cache_miss_rate = 0.6662
L2_total_cache_pending_hits = 109
L2_total_cache_reservation_fails = 4593
L2_total_cache_breakdown:
	L2_cache_stats_breakdown[GLOBAL_ACC_R][MISS] = 31264
	L2_cache_stats_breakdown[GLOBAL_ACC_R][RESERVATION_FAIL] = 615
	L2_cache_stats_breakdown[CONST_ACC_R][HIT] = 11
	L2_cache_stats_breakdown[CONST_ACC_R][HIT_RESERVED] = 3
	L2_cache_stats_breakdown[CONST_ACC_R][MISS] = 1
	L2_cache_stats_breakdown[CONST_ACC_R][RESERVATION_FAIL] = 108
	L2_cache_stats_breakdown[GLOBAL_ACC_W][HIT] = 15509
	L2_cache_stats_breakdown[GLOBAL_ACC_W][HIT_RESERVED] = 92
	L2_cache_stats_breakdown[GLOBAL_ACC_W][MISS] = 31
	L2_cache_stats_breakdown[GLOBAL_ACC_W][RESERVATION_FAIL] = 3457
	L2_cache_stats_breakdown[INST_ACC_R][HIT] = 56
	L2_cache_stats_breakdown[INST_ACC_R][HIT_RESERVED] = 14
	L2_cache_stats_breakdown[INST_ACC_R][MISS] = 5
	L2_cache_stats_breakdown[INST_ACC_R][RESERVATION_FAIL] = 413
L2_cache_data_port_util = 0.014
L2_cache_fill_port_util = 0.111

icnt_total_pkts_mem_to_simt=172372
icnt_total_pkts_simt_to_mem=62618
LD_mem_lat_dist  0 0 0 0 0 0 0 0 0 0 0 0 0 0 0 0 0 0 0 0 0 0 0 0 0 0 0
ST_mem_lat_dist  0 0 0 0 0 0 0 0 0 0 0 0 0 0 0 0 0 0 0 0 0 0 0 0 0 0 0
----------------------------Interconnect-DETAILS--------------------------------
Class 0:
Packet latency average = 28.9135
	minimum = 6
	maximum = 479
Network latency average = 19.6319
	minimum = 6
	maximum = 300
Slowest packet = 3100
Flit latency average = 17.5077
	minimum = 6
	maximum = 299
Slowest flit = 9374
Fragmentation average = 0.0120568
	minimum = 0
	maximum = 170
Injected packet rate average = 0.0369698
	minimum = 0.0326949 (at node 0)
	maximum = 0.0494354 (at node 22)
Accepted packet rate average = 0.0369698
	minimum = 0.0326949 (at node 0)
	maximum = 0.0494354 (at node 22)
Injected flit rate average = 0.092448
	minimum = 0.043572 (at node 0)
	maximum = 0.160161 (at node 22)
Accepted flit rate average= 0.092448
	minimum = 0.0494142 (at node 16)
	maximum = 0.123684 (at node 2)
Injected packet length average = 2.50064
Accepted packet length average = 2.50064
Total in-flight flits = 0 (0 measured)
====== Overall Traffic Statistics ======
====== Traffic class 0 ======
Packet latency average = 28.9135 (1 samples)
	minimum = 6 (1 samples)
	maximum = 479 (1 samples)
Network latency average = 19.6319 (1 samples)
	minimum = 6 (1 samples)
	maximum = 300 (1 samples)
Flit latency average = 17.5077 (1 samples)
	minimum = 6 (1 samples)
	maximum = 299 (1 samples)
Fragmentation average = 0.0120568 (1 samples)
	minimum = 0 (1 samples)
	maximum = 170 (1 samples)
Injected packet rate average = 0.0369698 (1 samples)
	minimum = 0.0326949 (1 samples)
	maximum = 0.0494354 (1 samples)
Accepted packet rate average = 0.0369698 (1 samples)
	minimum = 0.0326949 (1 samples)
	maximum = 0.0494354 (1 samples)
Injected flit rate average = 0.092448 (1 samples)
	minimum = 0.043572 (1 samples)
	maximum = 0.160161 (1 samples)
Accepted flit rate average = 0.092448 (1 samples)
	minimum = 0.0494142 (1 samples)
	maximum = 0.123684 (1 samples)
Injected packet size average = 2.50064 (1 samples)
Accepted packet size average = 2.50064 (1 samples)
Hops average = 1 (1 samples)
----------------------------END-of-Interconnect-DETAILS-------------------------


gpgpu_simulation_time = 0 days, 0 hrs, 2 min, 30 sec (150 sec)
gpgpu_simulation_rate = 430147 (inst/sec)
gpgpu_simulation_rate = 627 (cycle/sec)
149.889709 s
Copying data from device to host...0.000715 s
Verifying results...TEST FAILED, cpu = 494979.375, gpu = 719555.438

