

        *** GPGPU-Sim Simulator Version 3.2.2  [build 0] ***


GPGPU-Sim PTX: simulation mode 0 (can change with PTX_SIM_MODE_FUNC environment variable:
               1=functional simulation only, 0=detailed performance simulator)
GPGPU-Sim: Configuration options:

-network_mode                           1 # Interconnection network mode
-inter_config_file   config_fermi_islip.icnt # Interconnection network config file
-gpgpu_ptx_use_cuobjdump                    1 # Use cuobjdump to extract ptx and sass from binaries
-gpgpu_experimental_lib_support                    0 # Try to extract code from cuda libraries [Broken because of unknown cudaGetExportTable]
-gpgpu_ptx_convert_to_ptxplus                    0 # Convert SASS (native ISA) to ptxplus and run ptxplus
-gpgpu_ptx_force_max_capability                   20 # Force maximum compute capability
-gpgpu_ptx_inst_debug_to_file                    0 # Dump executed instructions' debug information to file
-gpgpu_ptx_inst_debug_file       inst_debug.txt # Executed instructions' debug output file
-gpgpu_ptx_inst_debug_thread_uid                    1 # Thread UID for executed instructions' debug output
-gpgpu_simd_model                       1 # 1 = post-dominator
-gpgpu_shader_core_pipeline              1536:32 # shader core pipeline config, i.e., {<nthread>:<warpsize>}
-gpgpu_tex_cache:l1  4:128:24,L:R:m:N:L,F:128:4,128:2 # per-shader L1 texture cache  (READ-ONLY) config  {<nsets>:<bsize>:<assoc>,<rep>:<wr>:<alloc>:<wr_alloc>,<mshr>:<N>:<merge>,<mq>:<rf>}
-gpgpu_const_cache:l1 64:64:2,L:R:f:N:L,A:2:32,4 # per-shader L1 constant memory cache  (READ-ONLY) config  {<nsets>:<bsize>:<assoc>,<rep>:<wr>:<alloc>:<wr_alloc>,<mshr>:<N>:<merge>,<mq>} 
-gpgpu_cache:il1     4:128:4,L:R:f:N:L,A:2:32,4 # shader L1 instruction cache config  {<nsets>:<bsize>:<assoc>,<rep>:<wr>:<alloc>:<wr_alloc>,<mshr>:<N>:<merge>,<mq>} 
-gpgpu_cache:dl1     32:128:4,L:L:m:N:H,A:32:8,8 # per-shader L1 data cache config  {<nsets>:<bsize>:<assoc>,<rep>:<wr>:<alloc>:<wr_alloc>,<mshr>:<N>:<merge>,<mq> | none}
-gpgpu_cache:dl1PrefL1                 none # per-shader L1 data cache config  {<nsets>:<bsize>:<assoc>,<rep>:<wr>:<alloc>:<wr_alloc>,<mshr>:<N>:<merge>,<mq> | none}
-gpgpu_cache:dl1PreShared                 none # per-shader L1 data cache config  {<nsets>:<bsize>:<assoc>,<rep>:<wr>:<alloc>:<wr_alloc>,<mshr>:<N>:<merge>,<mq> | none}
-gmem_skip_L1D                          0 # global memory access skip L1D cache (implements -Xptxas -dlcm=cg, default=no skip)
-gpgpu_perfect_mem                      0 # enable perfect memory mode (no cache miss)
-n_regfile_gating_group                    4 # group of lanes that should be read/written together)
-gpgpu_clock_gated_reg_file                    0 # enable clock gated reg file for power calculations
-gpgpu_clock_gated_lanes                    0 # enable clock gated lanes for power calculations
-gpgpu_shader_registers                32768 # Number of registers per shader core. Limits number of concurrent CTAs. (default 8192)
-gpgpu_shader_cta                       8 # Maximum number of concurrent CTAs in shader (default 8)
-gpgpu_num_cta_barriers                   16 # Maximum number of named barriers per CTA (default 16)
-gpgpu_n_clusters                      15 # number of processing clusters
-gpgpu_n_cores_per_cluster                    1 # number of simd cores per cluster
-gpgpu_n_cluster_ejection_buffer_size                    8 # number of packets in ejection buffer
-gpgpu_n_ldst_response_buffer_size                    2 # number of response packets in ld/st unit ejection buffer
-gpgpu_shmem_size                   16384 # Size of shared memory per shader core (default 16kB)
-gpgpu_shmem_size                   49152 # Size of shared memory per shader core (default 16kB)
-gpgpu_shmem_size_PrefL1                16384 # Size of shared memory per shader core (default 16kB)
-gpgpu_shmem_size_PrefShared                16384 # Size of shared memory per shader core (default 16kB)
-gpgpu_shmem_num_banks                   32 # Number of banks in the shared memory in each shader core (default 16)
-gpgpu_shmem_limited_broadcast                    0 # Limit shared memory to do one broadcast per cycle (default on)
-gpgpu_shmem_warp_parts                    1 # Number of portions a warp is divided into for shared memory bank conflict check 
-gpgpu_warpdistro_shader                   -1 # Specify which shader core to collect the warp size distribution from
-gpgpu_warp_issue_shader                    0 # Specify which shader core to collect the warp issue distribution from
-gpgpu_local_mem_map                    1 # Mapping from local memory space address to simulated GPU physical address space (default = enabled)
-gpgpu_num_reg_banks                   16 # Number of register banks (default = 8)
-gpgpu_reg_bank_use_warp_id                    0 # Use warp ID in mapping registers to banks (default = off)
-gpgpu_operand_collector_num_units_sp                    6 # number of collector units (default = 4)
-gpgpu_operand_collector_num_units_sfu                    8 # number of collector units (default = 4)
-gpgpu_operand_collector_num_units_mem                    2 # number of collector units (default = 2)
-gpgpu_operand_collector_num_units_gen                    0 # number of collector units (default = 0)
-gpgpu_operand_collector_num_in_ports_sp                    2 # number of collector unit in ports (default = 1)
-gpgpu_operand_collector_num_in_ports_sfu                    1 # number of collector unit in ports (default = 1)
-gpgpu_operand_collector_num_in_ports_mem                    1 # number of collector unit in ports (default = 1)
-gpgpu_operand_collector_num_in_ports_gen                    0 # number of collector unit in ports (default = 0)
-gpgpu_operand_collector_num_out_ports_sp                    2 # number of collector unit in ports (default = 1)
-gpgpu_operand_collector_num_out_ports_sfu                    1 # number of collector unit in ports (default = 1)
-gpgpu_operand_collector_num_out_ports_mem                    1 # number of collector unit in ports (default = 1)
-gpgpu_operand_collector_num_out_ports_gen                    0 # number of collector unit in ports (default = 0)
-gpgpu_coalesce_arch                   13 # Coalescing arch (default = 13, anything else is off for now)
-gpgpu_num_sched_per_core                    2 # Number of warp schedulers per core
-gpgpu_max_insn_issue_per_warp                    1 # Max number of instructions that can be issued per warp in one cycle by scheduler
-gpgpu_simt_core_sim_order                    1 # Select the simulation order of cores in a cluster (0=Fix, 1=Round-Robin)
-gpgpu_pipeline_widths        2,1,1,2,1,1,2 # Pipeline widths ID_OC_SP,ID_OC_SFU,ID_OC_MEM,OC_EX_SP,OC_EX_SFU,OC_EX_MEM,EX_WB
-gpgpu_num_sp_units                     2 # Number of SP units (default=1)
-gpgpu_num_sfu_units                    1 # Number of SF units (default=1)
-gpgpu_num_mem_units                    1 # Number if ldst units (default=1) WARNING: not hooked up to anything
-gpgpu_scheduler                      gto # Scheduler configuration: < lrr | gto | two_level_active > If two_level_active:<num_active_warps>:<inner_prioritization>:<outer_prioritization>For complete list of prioritization values see shader.h enum scheduler_prioritization_typeDefault: gto
-gpgpu_dram_scheduler                    1 # 0 = fifo, 1 = FR-FCFS (defaul)
-gpgpu_dram_partition_queues              8:8:8:8 # i2$:$2d:d2$:$2i
-l2_ideal                               0 # Use a ideal L2 cache that always hit
-gpgpu_cache:dl2     64:128:8,L:B:m:W:L,A:32:4,4:0,32 # unified banked L2 data cache config  {<nsets>:<bsize>:<assoc>,<rep>:<wr>:<alloc>:<wr_alloc>,<mshr>:<N>:<merge>,<mq>}
-gpgpu_cache:dl2_texture_only                    0 # L2 cache used for texture only
-gpgpu_n_mem                            6 # number of memory modules (e.g. memory controllers) in gpu
-gpgpu_n_sub_partition_per_mchannel                    2 # number of memory subpartition in each memory module
-gpgpu_n_mem_per_ctrlr                    2 # number of memory chips per memory controller
-gpgpu_memlatency_stat                   14 # track and display latency statistics 0x2 enables MC, 0x4 enables queue logs
-gpgpu_frfcfs_dram_sched_queue_size                   16 # 0 = unlimited (default); # entries per chip
-gpgpu_dram_return_queue_size                  116 # 0 = unlimited (default); # entries per chip
-gpgpu_dram_buswidth                    4 # default = 4 bytes (8 bytes per cycle at DDR)
-gpgpu_dram_burst_length                    8 # Burst length of each DRAM request (default = 4 data bus cycle)
-dram_data_command_freq_ratio                    4 # Frequency ratio between DRAM data bus and command bus (default = 2 times, i.e. DDR)
-gpgpu_dram_timing_opt nbk=16:CCD=2:RRD=6:RCD=12:RAS=28:RP=12:RC=40: CL=12:WL=4:CDLR=5:WR=12:nbkgrp=4:CCDL=3:RTPL=2 # DRAM timing parameters = {nbk:tCCD:tRRD:tRCD:tRAS:tRP:tRC:CL:WL:tCDLR:tWR:nbkgrp:tCCDL:tRTPL}
-rop_latency                          120 # ROP queue latency (default 85)
-dram_latency                         100 # DRAM latency (default 30)
-gpgpu_mem_addr_mapping dramid@8;00000000.00000000.00000000.00000000.0000RRRR.RRRRRRRR.BBBCCCCB.CCSSSSSS # mapping memory address to dram model {dramid@<start bit>;<memory address map>}
-gpgpu_mem_addr_test                    0 # run sweep test to check address mapping for aliased address
-gpgpu_mem_address_mask                    1 # 0 = old addressing mask, 1 = new addressing mask, 2 = new add. mask + flipped bank sel and chip sel bits
-gpuwattch_xml_file  gpuwattch_gtx480.xml # GPUWattch XML file
-power_simulation_enabled                    1 # Turn on power simulator (1=On, 0=Off)
-power_per_cycle_dump                    0 # Dump detailed power output each cycle
-power_trace_enabled                    0 # produce a file for the power trace (1=On, 0=Off)
-power_trace_zlevel                     6 # Compression level of the power trace output log (0=no comp, 9=highest)
-steady_power_levels_enabled                    0 # produce a file for the steady power levels (1=On, 0=Off)
-steady_state_definition                  8:4 # allowed deviation:number of samples
-gpgpu_max_cycle                        0 # terminates gpu simulation early (0 = no limit)
-gpgpu_max_insn                         0 # terminates gpu simulation early (0 = no limit)
-gpgpu_max_cta                          0 # terminates gpu simulation early (0 = no limit)
-gpgpu_runtime_stat                   500 # display runtime statistics such as dram utilization {<freq>:<flag>}
-liveness_message_freq                    1 # Minimum number of seconds between simulation liveness messages (0 = always print)
-gpgpu_flush_l1_cache                    0 # Flush L1 cache at the end of each kernel call
-gpgpu_flush_l2_cache                    0 # Flush L2 cache at the end of each kernel call
-gpgpu_deadlock_detect                    1 # Stop the simulation at deadlock (1=on (default), 0=off)
-gpgpu_ptx_instruction_classification                    0 # if enabled will classify ptx instruction types per kernel (Max 255 kernels now)
-gpgpu_ptx_sim_mode                     0 # Select between Performance (default) or Functional simulation (1)
-gpgpu_clock_domains 700.0:700.0:700.0:924.0 # Clock Domain Frequencies in MhZ {<Core Clock>:<ICNT Clock>:<L2 Clock>:<DRAM Clock>}
-gpgpu_max_concurrent_kernel                    8 # maximum kernels that can run concurrently on GPU
-gpgpu_cflog_interval                    0 # Interval between each snapshot in control flow logger
-visualizer_enabled                     0 # Turn on visualizer output (1=On, 0=Off)
-visualizer_outputfile                 NULL # Specifies the output log file for visualizer
-visualizer_zlevel                      6 # Compression level of the visualizer output log (0=no comp, 9=highest)
-trace_enabled                          0 # Turn on traces
-trace_components                    none # comma seperated list of traces to enable. Complete list found in trace_streams.tup. Default none
-trace_sampling_core                    0 # The core which is printed using CORE_DPRINTF. Default 0
-trace_sampling_memory_partition                   -1 # The memory partition which is printed using MEMPART_DPRINTF. Default -1 (i.e. all)
-enable_ptx_file_line_stats                    1 # Turn on PTX source line statistic profiling. (1 = On)
-ptx_line_stats_filename gpgpu_inst_stats.txt # Output file for PTX source line statistics.
-save_embedded_ptx                      0 # saves ptx files embedded in binary as <n>.ptx
-keep                                   0 # keep intermediate files created by GPGPU-Sim when interfacing with external programs
-gpgpu_ptx_save_converted_ptxplus                    0 # Saved converted ptxplus to a file
-ptx_opcode_latency_int         4,13,4,5,145 # Opcode latencies for integers <ADD,MAX,MUL,MAD,DIV>Default 1,1,19,25,145
-ptx_opcode_latency_fp          4,13,4,5,39 # Opcode latencies for single precision floating points <ADD,MAX,MUL,MAD,DIV>Default 1,1,1,1,30
-ptx_opcode_latency_dp         8,19,8,8,330 # Opcode latencies for double precision floating points <ADD,MAX,MUL,MAD,DIV>Default 8,8,8,8,335
-ptx_opcode_initiation_int            1,2,2,1,8 # Opcode initiation intervals for integers <ADD,MAX,MUL,MAD,DIV>Default 1,1,4,4,32
-ptx_opcode_initiation_fp            1,2,1,1,4 # Opcode initiation intervals for single precision floating points <ADD,MAX,MUL,MAD,DIV>Default 1,1,1,1,5
-ptx_opcode_initiation_dp         8,16,8,8,130 # Opcode initiation intervals for double precision floating points <ADD,MAX,MUL,MAD,DIV>Default 8,8,8,8,130
DRAM Timing Options:
nbk                                    16 # number of banks
CCD                                     2 # column to column delay
RRD                                     6 # minimal delay between activation of rows in different banks
RCD                                    12 # row to column delay
RAS                                    28 # time needed to activate row
RP                                     12 # time needed to precharge (deactivate) row
RC                                     40 # row cycle time
CDLR                                    5 # switching from write to read (changes tWTR)
WR                                     12 # last data-in to row precharge
CL                                     12 # CAS latency
WL                                      4 # Write latency
nbkgrp                                  4 # number of bank groups
CCDL                                    3 # column to column delay between accesses to different bank groups
RTPL                                    2 # read to precharge delay between accesses to different bank groups
Total number of memory sub partition = 12
addr_dec_mask[CHIP]  = 0000000000000000 	high:64 low:0
addr_dec_mask[BK]    = 000000000000e100 	high:16 low:8
addr_dec_mask[ROW]   = 000000000fff0000 	high:28 low:16
addr_dec_mask[COL]   = 0000000000001eff 	high:13 low:0
addr_dec_mask[BURST] = 000000000000003f 	high:6 low:0
sub_partition_id_mask = 0000000000000100
GPGPU-Sim uArch: clock freqs: 700000000.000000:700000000.000000:700000000.000000:924000000.000000
GPGPU-Sim uArch: clock periods: 0.00000000142857142857:0.00000000142857142857:0.00000000142857142857:0.00000000108225108225
*** Initializing Memory Statistics ***
GPGPU-Sim uArch: interconnect node map (shaderID+MemID to icntID)
GPGPU-Sim uArch: Memory nodes ID start from index: 15
GPGPU-Sim uArch:    0   1   2   3   4
GPGPU-Sim uArch:    5   6   7   8   9
GPGPU-Sim uArch:   10  11  12  13  14
GPGPU-Sim uArch:   15  16  17  18  19
GPGPU-Sim uArch:   20  21  22  23  24
GPGPU-Sim uArch:   25  26
GPGPU-Sim uArch: interconnect node reverse map (icntID to shaderID+MemID)
GPGPU-Sim uArch: Memory nodes start from ID: 15
GPGPU-Sim uArch:    0   1   2   3   4
GPGPU-Sim uArch:    5   6   7   8   9
GPGPU-Sim uArch:   10  11  12  13  14
GPGPU-Sim uArch:   15  16  17  18  19
GPGPU-Sim uArch:   20  21  22  23  24
GPGPU-Sim uArch:   25  26
11e1468bb766d2acc02e3190832b62a6  /root/CS217_GPU/Lab1Optimized/reduction
GPGPU-Sim uArch: performance model initialization complete.
GPGPU-Sim PTX: __cudaRegisterFatBinary, fat_cubin_handle = 1, filename=main.cu
self exe links to: /root/CS217_GPU/Lab1Optimized/reduction
Running md5sum using "md5sum /root/CS217_GPU/Lab1Optimized/reduction "
Running cuobjdump using "$CUDA_INSTALL_PATH/bin/cuobjdump -ptx -elf -sass /root/CS217_GPU/Lab1Optimized/reduction > _cuobjdump_complete_output_MWaQgM"
Parsing file _cuobjdump_complete_output_MWaQgM
######### cuobjdump parser ########
## Adding new section ELF
Adding arch: sm_10
Adding identifier: main.cu
## Adding new section PTX
Adding ptx filename: _cuobjdump_1.ptx
Adding arch: sm_10
Adding identifier: main.cu
## Adding new section ELF
Adding arch: sm_10
Adding identifier: support.cu
## Adding new section PTX
Adding ptx filename: _cuobjdump_2.ptx
Adding arch: sm_10
Adding identifier: support.cu
Done parsing!!!
GPGPU-Sim PTX: __cudaRegisterFunction _Z9reductionPfS_j : hostFun 0x0x400e40, fat_cubin_handle = 1
GPGPU-Sim PTX: allocating shared region for "__cuda___cuda_local_var_16314_59_non_const_partialSumVector20" from 0x0 to 0x1000 (shared memory space)
GPGPU-Sim PTX: instruction assembly for function '_Z9reductionPfS_j'...   done.
GPGPU-Sim PTX: finding reconvergence points for '_Z9reductionPfS_j'...
GPGPU-Sim PTX: Finding dominators for '_Z9reductionPfS_j'...
GPGPU-Sim PTX: Finding immediate dominators for '_Z9reductionPfS_j'...
GPGPU-Sim PTX: Finding postdominators for '_Z9reductionPfS_j'...
GPGPU-Sim PTX: Finding immediate postdominators for '_Z9reductionPfS_j'...
GPGPU-Sim PTX: pre-decoding instructions for '_Z9reductionPfS_j'...
GPGPU-Sim PTX: reconvergence points for _Z9reductionPfS_j...
GPGPU-Sim PTX:  1 (potential) branch divergence @  PC=0x060 (_1.ptx:73) @%p1 bra $Lt_0_3842;
GPGPU-Sim PTX:    immediate post dominator      @  PC=0x0b0 (_1.ptx:87) add.u32 %r8, %r5, %r1;
GPGPU-Sim PTX:  2 (potential) branch divergence @  PC=0x098 (_1.ptx:81) bra.uni $Lt_0_3586;
GPGPU-Sim PTX:    immediate post dominator      @  PC=0x0b0 (_1.ptx:87) add.u32 %r8, %r5, %r1;
GPGPU-Sim PTX:  3 (potential) branch divergence @  PC=0x0f0 (_1.ptx:97) @%p2 bra $Lt_0_4354;
GPGPU-Sim PTX:    immediate post dominator      @  PC=0x140 (_1.ptx:112) mov.s32 %r11, %r1;
GPGPU-Sim PTX:  4 (potential) branch divergence @  PC=0x128 (_1.ptx:105) bra.uni $Lt_0_4098;
GPGPU-Sim PTX:    immediate post dominator      @  PC=0x140 (_1.ptx:112) mov.s32 %r11, %r1;
GPGPU-Sim PTX:  5 (potential) branch divergence @  PC=0x158 (_1.ptx:115) @%p3 bra $Lt_0_4610;
GPGPU-Sim PTX:    immediate post dominator      @  PC=0x1d8 (_1.ptx:138) ld.shared.f32 %f8, [__cuda___cuda_local_var_16314_59_non_const_partialSumVector20+0];
GPGPU-Sim PTX:  6 (potential) branch divergence @  PC=0x170 (_1.ptx:120) @%p4 bra $Lt_0_5378;
GPGPU-Sim PTX:    immediate post dominator      @  PC=0x1b8 (_1.ptx:132) shr.u32 %r11, %r11, 1;
GPGPU-Sim PTX:  7 (potential) branch divergence @  PC=0x1d0 (_1.ptx:135) @%p5 bra $Lt_0_5122;
GPGPU-Sim PTX:    immediate post dominator      @  PC=0x1d8 (_1.ptx:138) ld.shared.f32 %f8, [__cuda___cuda_local_var_16314_59_non_const_partialSumVector20+0];
GPGPU-Sim PTX: ... end of reconvergence points for _Z9reductionPfS_j
GPGPU-Sim PTX: ... done pre-decoding instructions for '_Z9reductionPfS_j'.
GPGPU-Sim PTX: finished parsing EMBEDDED .ptx file _1.ptx
Adding _cuobjdump_1.ptx with cubin handle 1
GPGPU-Sim PTX: extracting embedded .ptx to temporary file "_ptx_1V03bg"
Running: cat _ptx_1V03bg | sed 's/.version 1.5/.version 1.4/' | sed 's/, texmode_independent//' | sed 's/\(\.extern \.const\[1\] .b8 \w\+\)\[\]/\1\[1\]/' | sed 's/const\[.\]/const\[0\]/g' > _ptx2_KdQk7J
GPGPU-Sim PTX: generating ptxinfo using "$CUDA_INSTALL_PATH/bin/ptxas --gpu-name=sm_20 -v _ptx2_KdQk7J --output-file  /dev/null 2> _ptx_1V03bginfo"
GPGPU-Sim PTX: Kernel '_Z9reductionPfS_j' : regs=10, lmem=0, smem=4096, cmem=52
GPGPU-Sim PTX: removing ptxinfo using "rm -f _ptx_1V03bg _ptx2_KdQk7J _ptx_1V03bginfo"
GPGPU-Sim PTX: loading globals with explicit initializers... 
GPGPU-Sim PTX: finished loading globals (0 bytes total).
GPGPU-Sim PTX: loading constants with explicit initializers...  done.
GPGPU-Sim PTX: __cudaRegisterFatBinary, fat_cubin_handle = 2, filename=support.cu

Setting up the problem...0.032026 s
    Input size = 1000000
Allocating device variables...0.000054 s
Copying data from host to device...0.106951 s
Launching kernel...
GPGPU-Sim PTX: cudaLaunch for 0x0x400e40 (mode=performance simulation) on stream 0
GPGPU-Sim PTX: pushing kernel '_Z9reductionPfS_j' to stream 0, gridDim= (977,1,1) blockDim = (512,1,1) 
kernel '_Z9reductionPfS_j' transfer to GPU hardware scheduler
GPGPU-Sim uArch: Shader 1 bind to kernel 1 '_Z9reductionPfS_j'
GPGPU-Sim uArch: CTA/core = 3, limited by: threads
GPGPU-Sim uArch: core:  1, cta: 0 initialized @(1,0)
GPGPU-Sim uArch: Shader 2 bind to kernel 1 '_Z9reductionPfS_j'
GPGPU-Sim uArch: core:  2, cta: 0 initialized @(1,0)
GPGPU-Sim uArch: Shader 3 bind to kernel 1 '_Z9reductionPfS_j'
GPGPU-Sim uArch: core:  3, cta: 0 initialized @(1,0)
GPGPU-Sim uArch: Shader 4 bind to kernel 1 '_Z9reductionPfS_j'
GPGPU-Sim uArch: core:  4, cta: 0 initialized @(1,0)
GPGPU-Sim uArch: Shader 5 bind to kernel 1 '_Z9reductionPfS_j'
GPGPU-Sim uArch: core:  5, cta: 0 initialized @(1,0)
GPGPU-Sim uArch: Shader 6 bind to kernel 1 '_Z9reductionPfS_j'
GPGPU-Sim uArch: core:  6, cta: 0 initialized @(1,0)
GPGPU-Sim uArch: Shader 7 bind to kernel 1 '_Z9reductionPfS_j'
GPGPU-Sim uArch: core:  7, cta: 0 initialized @(1,0)
GPGPU-Sim uArch: Shader 8 bind to kernel 1 '_Z9reductionPfS_j'
GPGPU-Sim uArch: core:  8, cta: 0 initialized @(1,0)
GPGPU-Sim uArch: Shader 9 bind to kernel 1 '_Z9reductionPfS_j'
GPGPU-Sim uArch: core:  9, cta: 0 initialized @(1,0)
GPGPU-Sim uArch: Shader 10 bind to kernel 1 '_Z9reductionPfS_j'
GPGPU-Sim uArch: core: 10, cta: 0 initialized @(1,0)
GPGPU-Sim uArch: Shader 11 bind to kernel 1 '_Z9reductionPfS_j'
GPGPU-Sim uArch: core: 11, cta: 0 initialized @(1,0)
GPGPU-Sim uArch: Shader 12 bind to kernel 1 '_Z9reductionPfS_j'
GPGPU-Sim uArch: core: 12, cta: 0 initialized @(1,0)
GPGPU-Sim uArch: Shader 13 bind to kernel 1 '_Z9reductionPfS_j'
GPGPU-Sim uArch: core: 13, cta: 0 initialized @(1,0)
GPGPU-Sim uArch: Shader 14 bind to kernel 1 '_Z9reductionPfS_j'
GPGPU-Sim uArch: core: 14, cta: 0 initialized @(1,0)
GPGPU-Sim uArch: Shader 0 bind to kernel 1 '_Z9reductionPfS_j'
GPGPU-Sim uArch: core:  0, cta: 0 initialized @(1,0)
GPGPU-Sim uArch: core:  1, cta: 1 initialized @(2,0)
GPGPU-Sim uArch: core:  2, cta: 1 initialized @(2,0)
GPGPU-Sim uArch: core:  3, cta: 1 initialized @(2,0)
GPGPU-Sim uArch: core:  4, cta: 1 initialized @(2,0)
GPGPU-Sim uArch: core:  5, cta: 1 initialized @(2,0)
GPGPU-Sim uArch: core:  6, cta: 1 initialized @(2,0)
GPGPU-Sim uArch: core:  7, cta: 1 initialized @(2,0)
GPGPU-Sim uArch: core:  8, cta: 1 initialized @(2,0)
GPGPU-Sim uArch: core:  9, cta: 1 initialized @(2,0)
GPGPU-Sim uArch: core: 10, cta: 1 initialized @(2,0)
GPGPU-Sim uArch: core: 11, cta: 1 initialized @(2,0)
GPGPU-Sim uArch: core: 12, cta: 1 initialized @(2,0)
GPGPU-Sim uArch: core: 13, cta: 1 initialized @(2,0)
GPGPU-Sim uArch: core: 14, cta: 1 initialized @(2,0)
GPGPU-Sim uArch: core:  0, cta: 1 initialized @(2,0)
GPGPU-Sim uArch: core:  1, cta: 2 initialized @(3,0)
GPGPU-Sim uArch: core:  2, cta: 2 initialized @(3,0)
GPGPU-Sim uArch: core:  3, cta: 2 initialized @(3,0)
GPGPU-Sim uArch: core:  4, cta: 2 initialized @(3,0)
GPGPU-Sim uArch: core:  5, cta: 2 initialized @(3,0)
GPGPU-Sim uArch: core:  6, cta: 2 initialized @(3,0)
GPGPU-Sim uArch: core:  7, cta: 2 initialized @(3,0)
GPGPU-Sim uArch: core:  8, cta: 2 initialized @(3,0)
GPGPU-Sim uArch: core:  9, cta: 2 initialized @(3,0)
GPGPU-Sim uArch: core: 10, cta: 2 initialized @(3,0)
GPGPU-Sim uArch: core: 11, cta: 2 initialized @(3,0)
GPGPU-Sim uArch: core: 12, cta: 2 initialized @(3,0)
GPGPU-Sim uArch: core: 13, cta: 2 initialized @(3,0)
GPGPU-Sim uArch: core: 14, cta: 2 initialized @(3,0)
GPGPU-Sim uArch: core:  0, cta: 2 initialized @(3,0)
GPGPU-Sim PTX: 100000 instructions simulated : ctaid=(15,0,0) tid=(191,0,0)
GPGPU-Sim uArch: cycles simulated: 500  inst.: 134016 (ipc=268.0) sim_rate=134016 (inst/sec) elapsed = 0:0:00:01 / Tue Jan 29 05:41:41 2019
GPGPU-Sim PTX: 200000 instructions simulated : ctaid=(24,0,0) tid=(383,0,0)
GPGPU-Sim PTX: 300000 instructions simulated : ctaid=(10,0,0) tid=(383,0,0)
GPGPU-Sim PTX: 400000 instructions simulated : ctaid=(42,0,0) tid=(287,0,0)
GPGPU-Sim PTX: 500000 instructions simulated : ctaid=(15,0,0) tid=(127,0,0)
GPGPU-Sim PTX: 600000 instructions simulated : ctaid=(42,0,0) tid=(191,0,0)
GPGPU-Sim uArch: cycles simulated: 2000  inst.: 625568 (ipc=312.8) sim_rate=312784 (inst/sec) elapsed = 0:0:00:02 / Tue Jan 29 05:41:43 2019
GPGPU-Sim PTX: 700000 instructions simulated : ctaid=(19,0,0) tid=(159,0,0)
GPGPU-Sim PTX: 800000 instructions simulated : ctaid=(11,0,0) tid=(159,0,0)
GPGPU-Sim PTX: 900000 instructions simulated : ctaid=(30,0,0) tid=(319,0,0)
GPGPU-Sim PTX: 1000000 instructions simulated : ctaid=(2,0,0) tid=(95,0,0)
GPGPU-Sim uArch: cycles simulated: 3000  inst.: 955744 (ipc=318.6) sim_rate=318581 (inst/sec) elapsed = 0:0:00:03 / Tue Jan 29 05:41:44 2019
GPGPU-Sim PTX: 1100000 instructions simulated : ctaid=(33,0,0) tid=(351,0,0)
GPGPU-Sim PTX: 1200000 instructions simulated : ctaid=(13,0,0) tid=(383,0,0)
GPGPU-Sim PTX: 1300000 instructions simulated : ctaid=(36,0,0) tid=(415,0,0)
GPGPU-Sim PTX: 1400000 instructions simulated : ctaid=(19,0,0) tid=(223,0,0)
GPGPU-Sim PTX: 1500000 instructions simulated : ctaid=(33,0,0) tid=(159,0,0)
GPGPU-Sim PTX: 1600000 instructions simulated : ctaid=(22,0,0) tid=(511,0,0)
GPGPU-Sim PTX: 1700000 instructions simulated : ctaid=(13,0,0) tid=(31,0,0)
GPGPU-Sim PTX: 1800000 instructions simulated : ctaid=(20,0,0) tid=(367,0,0)
GPGPU-Sim uArch: cycles simulated: 4000  inst.: 1727152 (ipc=431.8) sim_rate=431788 (inst/sec) elapsed = 0:0:00:04 / Tue Jan 29 05:41:45 2019
GPGPU-Sim PTX: 1900000 instructions simulated : ctaid=(4,0,0) tid=(79,0,0)
GPGPU-Sim PTX: 2000000 instructions simulated : ctaid=(44,0,0) tid=(151,0,0)
GPGPU-Sim PTX: 2100000 instructions simulated : ctaid=(42,0,0) tid=(227,0,0)
GPGPU-Sim uArch: cycles simulated: 4500  inst.: 2072052 (ipc=460.5) sim_rate=414410 (inst/sec) elapsed = 0:0:00:05 / Tue Jan 29 05:41:46 2019
GPGPU-Sim PTX: 2200000 instructions simulated : ctaid=(14,0,0) tid=(347,0,0)
GPGPU-Sim PTX: 2300000 instructions simulated : ctaid=(3,0,0) tid=(297,0,0)
GPGPU-Sim PTX: 2400000 instructions simulated : ctaid=(44,0,0) tid=(253,0,0)
GPGPU-Sim PTX: 2500000 instructions simulated : ctaid=(29,0,0) tid=(412,0,0)
GPGPU-Sim PTX: 2600000 instructions simulated : ctaid=(26,0,0) tid=(267,0,0)
GPGPU-Sim PTX: 2700000 instructions simulated : ctaid=(19,0,0) tid=(343,0,0)
GPGPU-Sim PTX: 2800000 instructions simulated : ctaid=(10,0,0) tid=(227,0,0)
GPGPU-Sim uArch: cycles simulated: 5500  inst.: 2733526 (ipc=497.0) sim_rate=455587 (inst/sec) elapsed = 0:0:00:06 / Tue Jan 29 05:41:47 2019
GPGPU-Sim uArch: Shader 1 finished CTA #0 (5518,0), 2 CTAs running
GPGPU-Sim uArch: core:  1, cta: 0 initialized @(5519,0)
GPGPU-Sim uArch: Shader 2 finished CTA #0 (5550,0), 2 CTAs running
GPGPU-Sim uArch: core:  2, cta: 0 initialized @(5551,0)
GPGPU-Sim PTX: 2900000 instructions simulated : ctaid=(45,0,0) tid=(336,0,0)
GPGPU-Sim uArch: Shader 2 finished CTA #1 (5582,0), 2 CTAs running
GPGPU-Sim uArch: core:  2, cta: 1 initialized @(5583,0)
GPGPU-Sim PTX: 3000000 instructions simulated : ctaid=(47,0,0) tid=(53,0,0)
GPGPU-Sim uArch: Shader 1 finished CTA #1 (5760,0), 2 CTAs running
GPGPU-Sim uArch: core:  1, cta: 1 initialized @(5761,0)
GPGPU-Sim uArch: Shader 8 finished CTA #1 (6318,0), 2 CTAs running
GPGPU-Sim uArch: core:  8, cta: 1 initialized @(6319,0)
GPGPU-Sim uArch: Shader 8 finished CTA #0 (6366,0), 2 CTAs running
GPGPU-Sim uArch: core:  8, cta: 0 initialized @(6367,0)
GPGPU-Sim uArch: Shader 1 finished CTA #2 (6477,0), 2 CTAs running
GPGPU-Sim uArch: core:  1, cta: 2 initialized @(6478,0)
GPGPU-Sim uArch: Shader 2 finished CTA #2 (6480,0), 2 CTAs running
GPGPU-Sim uArch: core:  2, cta: 2 initialized @(6481,0)
GPGPU-Sim PTX: 3100000 instructions simulated : ctaid=(52,0,0) tid=(391,0,0)
GPGPU-Sim uArch: cycles simulated: 6500  inst.: 2954885 (ipc=454.6) sim_rate=422126 (inst/sec) elapsed = 0:0:00:07 / Tue Jan 29 05:41:48 2019
GPGPU-Sim uArch: Shader 5 finished CTA #0 (6616,0), 2 CTAs running
GPGPU-Sim uArch: core:  5, cta: 0 initialized @(6617,0)
GPGPU-Sim uArch: Shader 4 finished CTA #0 (6694,0), 2 CTAs running
GPGPU-Sim uArch: core:  4, cta: 0 initialized @(6695,0)
GPGPU-Sim uArch: Shader 5 finished CTA #1 (6697,0), 2 CTAs running
GPGPU-Sim uArch: core:  5, cta: 1 initialized @(6698,0)
GPGPU-Sim uArch: Shader 11 finished CTA #0 (6756,0), 2 CTAs running
GPGPU-Sim uArch: core: 11, cta: 0 initialized @(6757,0)
GPGPU-Sim uArch: Shader 9 finished CTA #0 (6846,0), 2 CTAs running
GPGPU-Sim uArch: core:  9, cta: 0 initialized @(6847,0)
GPGPU-Sim uArch: Shader 11 finished CTA #1 (6853,0), 2 CTAs running
GPGPU-Sim uArch: core: 11, cta: 1 initialized @(6854,0)
GPGPU-Sim uArch: Shader 3 finished CTA #0 (6860,0), 2 CTAs running
GPGPU-Sim uArch: core:  3, cta: 0 initialized @(6861,0)
GPGPU-Sim uArch: Shader 6 finished CTA #0 (6866,0), 2 CTAs running
GPGPU-Sim uArch: core:  6, cta: 0 initialized @(6867,0)
GPGPU-Sim uArch: Shader 3 finished CTA #1 (6893,0), 2 CTAs running
GPGPU-Sim uArch: core:  3, cta: 1 initialized @(6894,0)
GPGPU-Sim uArch: Shader 7 finished CTA #0 (6894,0), 2 CTAs running
GPGPU-Sim uArch: core:  7, cta: 0 initialized @(6895,0)
GPGPU-Sim uArch: Shader 6 finished CTA #1 (6899,0), 2 CTAs running
GPGPU-Sim uArch: core:  6, cta: 1 initialized @(6900,0)
GPGPU-Sim PTX: 3200000 instructions simulated : ctaid=(52,0,0) tid=(71,0,0)
GPGPU-Sim uArch: Shader 13 finished CTA #0 (6906,0), 2 CTAs running
GPGPU-Sim uArch: core: 13, cta: 0 initialized @(6907,0)
GPGPU-Sim uArch: Shader 14 finished CTA #0 (6914,0), 2 CTAs running
GPGPU-Sim uArch: core: 14, cta: 0 initialized @(6915,0)
GPGPU-Sim uArch: Shader 0 finished CTA #0 (6942,0), 2 CTAs running
GPGPU-Sim uArch: core:  0, cta: 0 initialized @(6943,0)
GPGPU-Sim uArch: Shader 12 finished CTA #0 (6970,0), 2 CTAs running
GPGPU-Sim uArch: core: 12, cta: 0 initialized @(6971,0)
GPGPU-Sim uArch: Shader 10 finished CTA #0 (6992,0), 2 CTAs running
GPGPU-Sim uArch: core: 10, cta: 0 initialized @(6993,0)
GPGPU-Sim uArch: Shader 12 finished CTA #1 (7003,0), 2 CTAs running
GPGPU-Sim uArch: core: 12, cta: 1 initialized @(7004,0)
GPGPU-Sim uArch: Shader 8 finished CTA #2 (7027,0), 2 CTAs running
GPGPU-Sim uArch: core:  8, cta: 2 initialized @(7028,0)
GPGPU-Sim PTX: 3300000 instructions simulated : ctaid=(61,0,0) tid=(327,0,0)
GPGPU-Sim uArch: Shader 0 finished CTA #1 (7086,0), 2 CTAs running
GPGPU-Sim uArch: core:  0, cta: 1 initialized @(7087,0)
GPGPU-Sim uArch: Shader 7 finished CTA #1 (7265,0), 2 CTAs running
GPGPU-Sim uArch: core:  7, cta: 1 initialized @(7266,0)
GPGPU-Sim uArch: Shader 10 finished CTA #1 (7269,0), 2 CTAs running
GPGPU-Sim uArch: core: 10, cta: 1 initialized @(7270,0)
GPGPU-Sim uArch: Shader 4 finished CTA #1 (7291,0), 2 CTAs running
GPGPU-Sim uArch: core:  4, cta: 1 initialized @(7292,0)
GPGPU-Sim uArch: Shader 5 finished CTA #2 (7353,0), 2 CTAs running
GPGPU-Sim uArch: core:  5, cta: 2 initialized @(7354,0)
GPGPU-Sim PTX: 3400000 instructions simulated : ctaid=(75,0,0) tid=(423,0,0)
GPGPU-Sim uArch: Shader 9 finished CTA #1 (7419,0), 2 CTAs running
GPGPU-Sim uArch: core:  9, cta: 1 initialized @(7420,0)
GPGPU-Sim uArch: Shader 13 finished CTA #1 (7427,0), 2 CTAs running
GPGPU-Sim uArch: core: 13, cta: 1 initialized @(7428,0)
GPGPU-Sim uArch: Shader 14 finished CTA #1 (7429,0), 2 CTAs running
GPGPU-Sim uArch: core: 14, cta: 1 initialized @(7430,0)
GPGPU-Sim uArch: Shader 11 finished CTA #2 (7445,0), 2 CTAs running
GPGPU-Sim uArch: core: 11, cta: 2 initialized @(7446,0)
GPGPU-Sim uArch: Shader 3 finished CTA #2 (7455,0), 2 CTAs running
GPGPU-Sim uArch: core:  3, cta: 2 initialized @(7456,0)
GPGPU-Sim uArch: Shader 6 finished CTA #2 (7492,0), 2 CTAs running
GPGPU-Sim uArch: core:  6, cta: 2 initialized @(7493,0)
GPGPU-Sim uArch: cycles simulated: 7500  inst.: 3285445 (ipc=438.1) sim_rate=410680 (inst/sec) elapsed = 0:0:00:08 / Tue Jan 29 05:41:49 2019
GPGPU-Sim uArch: Shader 4 finished CTA #2 (7558,0), 2 CTAs running
GPGPU-Sim uArch: core:  4, cta: 2 initialized @(7559,0)
GPGPU-Sim uArch: Shader 12 finished CTA #2 (7566,0), 2 CTAs running
GPGPU-Sim uArch: core: 12, cta: 2 initialized @(7567,0)
GPGPU-Sim PTX: 3500000 instructions simulated : ctaid=(83,0,0) tid=(7,0,0)
GPGPU-Sim uArch: Shader 0 finished CTA #2 (7598,0), 2 CTAs running
GPGPU-Sim uArch: core:  0, cta: 2 initialized @(7599,0)
GPGPU-Sim uArch: Shader 7 finished CTA #2 (7662,0), 2 CTAs running
GPGPU-Sim uArch: core:  7, cta: 2 initialized @(7663,0)
GPGPU-Sim uArch: Shader 10 finished CTA #2 (7666,0), 2 CTAs running
GPGPU-Sim uArch: core: 10, cta: 2 initialized @(7667,0)
GPGPU-Sim uArch: Shader 9 finished CTA #2 (7704,0), 2 CTAs running
GPGPU-Sim uArch: core:  9, cta: 2 initialized @(7705,0)
GPGPU-Sim PTX: 3600000 instructions simulated : ctaid=(59,0,0) tid=(167,0,0)
GPGPU-Sim uArch: Shader 13 finished CTA #2 (7735,0), 2 CTAs running
GPGPU-Sim uArch: core: 13, cta: 2 initialized @(7736,0)
GPGPU-Sim uArch: Shader 14 finished CTA #2 (7737,0), 2 CTAs running
GPGPU-Sim uArch: core: 14, cta: 2 initialized @(7738,0)
GPGPU-Sim PTX: 3700000 instructions simulated : ctaid=(85,0,0) tid=(327,0,0)
GPGPU-Sim uArch: cycles simulated: 8000  inst.: 3593701 (ipc=449.2) sim_rate=399300 (inst/sec) elapsed = 0:0:00:09 / Tue Jan 29 05:41:50 2019
GPGPU-Sim PTX: 3800000 instructions simulated : ctaid=(63,0,0) tid=(391,0,0)
GPGPU-Sim PTX: 3900000 instructions simulated : ctaid=(52,0,0) tid=(7,0,0)
GPGPU-Sim PTX: 4000000 instructions simulated : ctaid=(57,0,0) tid=(7,0,0)
GPGPU-Sim PTX: 4100000 instructions simulated : ctaid=(65,0,0) tid=(455,0,0)
GPGPU-Sim uArch: cycles simulated: 8500  inst.: 3909029 (ipc=459.9) sim_rate=390902 (inst/sec) elapsed = 0:0:00:10 / Tue Jan 29 05:41:51 2019
GPGPU-Sim PTX: 4200000 instructions simulated : ctaid=(68,0,0) tid=(311,0,0)
GPGPU-Sim PTX: 4300000 instructions simulated : ctaid=(50,0,0) tid=(359,0,0)
GPGPU-Sim PTX: 4400000 instructions simulated : ctaid=(52,0,0) tid=(455,0,0)
GPGPU-Sim PTX: 4500000 instructions simulated : ctaid=(67,0,0) tid=(439,0,0)
GPGPU-Sim uArch: cycles simulated: 9000  inst.: 4303245 (ipc=478.1) sim_rate=391204 (inst/sec) elapsed = 0:0:00:11 / Tue Jan 29 05:41:52 2019
GPGPU-Sim PTX: 4600000 instructions simulated : ctaid=(63,0,0) tid=(323,0,0)
GPGPU-Sim PTX: 4700000 instructions simulated : ctaid=(80,0,0) tid=(447,0,0)
GPGPU-Sim PTX: 4800000 instructions simulated : ctaid=(58,0,0) tid=(191,0,0)
GPGPU-Sim PTX: 4900000 instructions simulated : ctaid=(59,0,0) tid=(211,0,0)
GPGPU-Sim uArch: cycles simulated: 9500  inst.: 4674679 (ipc=492.1) sim_rate=389556 (inst/sec) elapsed = 0:0:00:12 / Tue Jan 29 05:41:53 2019
GPGPU-Sim PTX: 5000000 instructions simulated : ctaid=(52,0,0) tid=(94,0,0)
GPGPU-Sim PTX: 5100000 instructions simulated : ctaid=(88,0,0) tid=(316,0,0)
GPGPU-Sim PTX: 5200000 instructions simulated : ctaid=(64,0,0) tid=(497,0,0)
GPGPU-Sim uArch: Shader 2 finished CTA #0 (9927,0), 2 CTAs running
GPGPU-Sim uArch: core:  2, cta: 0 initialized @(9928,0)
GPGPU-Sim PTX: 5300000 instructions simulated : ctaid=(54,0,0) tid=(490,0,0)
GPGPU-Sim uArch: Shader 1 finished CTA #0 (10155,0), 2 CTAs running
GPGPU-Sim uArch: core:  1, cta: 0 initialized @(10156,0)
GPGPU-Sim PTX: 5400000 instructions simulated : ctaid=(91,0,0) tid=(146,0,0)
GPGPU-Sim uArch: Shader 1 finished CTA #1 (10232,0), 2 CTAs running
GPGPU-Sim uArch: core:  1, cta: 1 initialized @(10233,0)
GPGPU-Sim uArch: Shader 2 finished CTA #1 (10298,0), 2 CTAs running
GPGPU-Sim uArch: core:  2, cta: 1 initialized @(10299,0)
GPGPU-Sim PTX: 5500000 instructions simulated : ctaid=(51,0,0) tid=(342,0,0)
GPGPU-Sim uArch: Shader 8 finished CTA #1 (10372,0), 2 CTAs running
GPGPU-Sim uArch: core:  8, cta: 1 initialized @(10373,0)
GPGPU-Sim PTX: 5600000 instructions simulated : ctaid=(60,0,0) tid=(307,0,0)
GPGPU-Sim uArch: cycles simulated: 10500  inst.: 5373774 (ipc=511.8) sim_rate=413367 (inst/sec) elapsed = 0:0:00:13 / Tue Jan 29 05:41:54 2019
GPGPU-Sim uArch: Shader 5 finished CTA #0 (10570,0), 2 CTAs running
GPGPU-Sim uArch: core:  5, cta: 0 initialized @(10571,0)
GPGPU-Sim PTX: 5700000 instructions simulated : ctaid=(90,0,0) tid=(345,0,0)
GPGPU-Sim uArch: Shader 2 finished CTA #2 (10607,0), 2 CTAs running
GPGPU-Sim uArch: core:  2, cta: 2 initialized @(10608,0)
GPGPU-Sim uArch: Shader 1 finished CTA #2 (10670,0), 2 CTAs running
GPGPU-Sim uArch: core:  1, cta: 2 initialized @(10671,0)
GPGPU-Sim uArch: Shader 11 finished CTA #0 (10716,0), 2 CTAs running
GPGPU-Sim uArch: core: 11, cta: 0 initialized @(10717,0)
GPGPU-Sim PTX: 5800000 instructions simulated : ctaid=(62,0,0) tid=(4,0,0)
GPGPU-Sim uArch: Shader 8 finished CTA #0 (10814,0), 2 CTAs running
GPGPU-Sim uArch: core:  8, cta: 0 initialized @(10815,0)
GPGPU-Sim PTX: 5900000 instructions simulated : ctaid=(95,0,0) tid=(377,0,0)
GPGPU-Sim uArch: Shader 3 finished CTA #0 (10974,0), 2 CTAs running
GPGPU-Sim uArch: core:  3, cta: 0 initialized @(10975,0)
GPGPU-Sim PTX: 6000000 instructions simulated : ctaid=(69,0,0) tid=(67,0,0)
GPGPU-Sim uArch: cycles simulated: 11000  inst.: 5721001 (ipc=520.1) sim_rate=408642 (inst/sec) elapsed = 0:0:00:14 / Tue Jan 29 05:41:55 2019
GPGPU-Sim uArch: Shader 0 finished CTA #0 (11025,0), 2 CTAs running
GPGPU-Sim uArch: core:  0, cta: 0 initialized @(11026,0)
GPGPU-Sim uArch: Shader 9 finished CTA #0 (11027,0), 2 CTAs running
GPGPU-Sim uArch: core:  9, cta: 0 initialized @(11028,0)
GPGPU-Sim uArch: Shader 12 finished CTA #0 (11038,0), 2 CTAs running
GPGPU-Sim uArch: core: 12, cta: 0 initialized @(11039,0)
GPGPU-Sim uArch: Shader 6 finished CTA #0 (11052,0), 2 CTAs running
GPGPU-Sim uArch: core:  6, cta: 0 initialized @(11053,0)
GPGPU-Sim PTX: 6100000 instructions simulated : ctaid=(90,0,0) tid=(477,0,0)
GPGPU-Sim uArch: Shader 4 finished CTA #0 (11151,0), 2 CTAs running
GPGPU-Sim uArch: core:  4, cta: 0 initialized @(11152,0)
GPGPU-Sim uArch: Shader 7 finished CTA #0 (11175,0), 2 CTAs running
GPGPU-Sim uArch: core:  7, cta: 0 initialized @(11176,0)
GPGPU-Sim uArch: Shader 10 finished CTA #0 (11230,0), 2 CTAs running
GPGPU-Sim uArch: core: 10, cta: 0 initialized @(11231,0)
GPGPU-Sim PTX: 6200000 instructions simulated : ctaid=(91,0,0) tid=(431,0,0)
GPGPU-Sim uArch: Shader 14 finished CTA #0 (11284,0), 2 CTAs running
GPGPU-Sim uArch: core: 14, cta: 0 initialized @(11285,0)
GPGPU-Sim uArch: Shader 5 finished CTA #1 (11310,0), 2 CTAs running
GPGPU-Sim uArch: core:  5, cta: 1 initialized @(11311,0)
GPGPU-Sim uArch: Shader 3 finished CTA #1 (11386,0), 2 CTAs running
GPGPU-Sim uArch: core:  3, cta: 1 initialized @(11387,0)
GPGPU-Sim uArch: Shader 6 finished CTA #1 (11391,0), 2 CTAs running
GPGPU-Sim uArch: core:  6, cta: 1 initialized @(11392,0)
GPGPU-Sim uArch: Shader 13 finished CTA #0 (11401,0), 2 CTAs running
GPGPU-Sim uArch: core: 13, cta: 0 initialized @(11402,0)
GPGPU-Sim PTX: 6300000 instructions simulated : ctaid=(81,0,0) tid=(49,0,0)
GPGPU-Sim uArch: Shader 0 finished CTA #1 (11430,0), 2 CTAs running
GPGPU-Sim uArch: core:  0, cta: 1 initialized @(11431,0)
GPGPU-Sim uArch: Shader 11 finished CTA #1 (11454,0), 2 CTAs running
GPGPU-Sim uArch: core: 11, cta: 1 initialized @(11455,0)
GPGPU-Sim uArch: Shader 12 finished CTA #1 (11495,0), 2 CTAs running
GPGPU-Sim uArch: core: 12, cta: 1 initialized @(11496,0)
GPGPU-Sim uArch: cycles simulated: 11500  inst.: 6073412 (ipc=528.1) sim_rate=404894 (inst/sec) elapsed = 0:0:00:15 / Tue Jan 29 05:41:56 2019
GPGPU-Sim PTX: 6400000 instructions simulated : ctaid=(98,0,0) tid=(300,0,0)
GPGPU-Sim uArch: Shader 9 finished CTA #1 (11644,0), 2 CTAs running
GPGPU-Sim uArch: core:  9, cta: 1 initialized @(11645,0)
GPGPU-Sim uArch: Shader 4 finished CTA #1 (11681,0), 2 CTAs running
GPGPU-Sim uArch: core:  4, cta: 1 initialized @(11682,0)
GPGPU-Sim uArch: Shader 8 finished CTA #2 (11689,0), 2 CTAs running
GPGPU-Sim uArch: core:  8, cta: 2 initialized @(11690,0)
GPGPU-Sim PTX: 6500000 instructions simulated : ctaid=(113,0,0) tid=(271,0,0)
GPGPU-Sim uArch: Shader 10 finished CTA #1 (11789,0), 2 CTAs running
GPGPU-Sim uArch: core: 10, cta: 1 initialized @(11790,0)
GPGPU-Sim uArch: Shader 14 finished CTA #1 (11797,0), 2 CTAs running
GPGPU-Sim uArch: core: 14, cta: 1 initialized @(11798,0)
GPGPU-Sim uArch: Shader 7 finished CTA #1 (11867,0), 2 CTAs running
GPGPU-Sim uArch: core:  7, cta: 1 initialized @(11868,0)
GPGPU-Sim PTX: 6600000 instructions simulated : ctaid=(97,0,0) tid=(207,0,0)
GPGPU-Sim uArch: cycles simulated: 12000  inst.: 6295786 (ipc=524.6) sim_rate=393486 (inst/sec) elapsed = 0:0:00:16 / Tue Jan 29 05:41:57 2019
GPGPU-Sim uArch: Shader 13 finished CTA #1 (12033,0), 2 CTAs running
GPGPU-Sim uArch: core: 13, cta: 1 initialized @(12034,0)
GPGPU-Sim uArch: Shader 3 finished CTA #2 (12230,0), 2 CTAs running
GPGPU-Sim uArch: core:  3, cta: 2 initialized @(12231,0)
GPGPU-Sim uArch: Shader 5 finished CTA #2 (12236,0), 2 CTAs running
GPGPU-Sim uArch: core:  5, cta: 2 initialized @(12237,0)
GPGPU-Sim uArch: Shader 12 finished CTA #2 (12256,0), 2 CTAs running
GPGPU-Sim uArch: core: 12, cta: 2 initialized @(12257,0)
GPGPU-Sim PTX: 6700000 instructions simulated : ctaid=(105,0,0) tid=(351,0,0)
GPGPU-Sim uArch: Shader 11 finished CTA #2 (12285,0), 2 CTAs running
GPGPU-Sim uArch: core: 11, cta: 2 initialized @(12286,0)
GPGPU-Sim uArch: Shader 6 finished CTA #2 (12304,0), 2 CTAs running
GPGPU-Sim uArch: core:  6, cta: 2 initialized @(12305,0)
GPGPU-Sim uArch: Shader 4 finished CTA #2 (12388,0), 2 CTAs running
GPGPU-Sim uArch: core:  4, cta: 2 initialized @(12389,0)
GPGPU-Sim uArch: Shader 9 finished CTA #2 (12431,0), 2 CTAs running
GPGPU-Sim uArch: core:  9, cta: 2 initialized @(12432,0)
GPGPU-Sim uArch: Shader 0 finished CTA #2 (12448,0), 2 CTAs running
GPGPU-Sim uArch: core:  0, cta: 2 initialized @(12449,0)
GPGPU-Sim uArch: Shader 10 finished CTA #2 (12452,0), 2 CTAs running
GPGPU-Sim uArch: core: 10, cta: 2 initialized @(12453,0)
GPGPU-Sim uArch: Shader 7 finished CTA #2 (12467,0), 2 CTAs running
GPGPU-Sim uArch: core:  7, cta: 2 initialized @(12468,0)
GPGPU-Sim PTX: 6800000 instructions simulated : ctaid=(131,0,0) tid=(431,0,0)
GPGPU-Sim uArch: Shader 14 finished CTA #2 (12469,0), 2 CTAs running
GPGPU-Sim uArch: core: 14, cta: 2 initialized @(12470,0)
GPGPU-Sim uArch: Shader 13 finished CTA #2 (12496,0), 2 CTAs running
GPGPU-Sim uArch: core: 13, cta: 2 initialized @(12497,0)
GPGPU-Sim uArch: cycles simulated: 12500  inst.: 6486490 (ipc=518.9) sim_rate=381558 (inst/sec) elapsed = 0:0:00:17 / Tue Jan 29 05:41:58 2019
GPGPU-Sim PTX: 6900000 instructions simulated : ctaid=(100,0,0) tid=(191,0,0)
GPGPU-Sim PTX: 7000000 instructions simulated : ctaid=(90,0,0) tid=(459,0,0)
GPGPU-Sim PTX: 7100000 instructions simulated : ctaid=(122,0,0) tid=(155,0,0)
GPGPU-Sim PTX: 7200000 instructions simulated : ctaid=(94,0,0) tid=(181,0,0)
GPGPU-Sim PTX: 7300000 instructions simulated : ctaid=(102,0,0) tid=(85,0,0)
GPGPU-Sim PTX: 7400000 instructions simulated : ctaid=(108,0,0) tid=(320,0,0)
GPGPU-Sim PTX: 7500000 instructions simulated : ctaid=(124,0,0) tid=(494,0,0)
GPGPU-Sim uArch: cycles simulated: 13500  inst.: 7202175 (ipc=533.5) sim_rate=400120 (inst/sec) elapsed = 0:0:00:18 / Tue Jan 29 05:41:59 2019
GPGPU-Sim PTX: 7600000 instructions simulated : ctaid=(122,0,0) tid=(3,0,0)
GPGPU-Sim PTX: 7700000 instructions simulated : ctaid=(103,0,0) tid=(415,0,0)
GPGPU-Sim uArch: Shader 2 finished CTA #0 (13668,0), 2 CTAs running
GPGPU-Sim uArch: core:  2, cta: 0 initialized @(13669,0)
GPGPU-Sim PTX: 7800000 instructions simulated : ctaid=(118,0,0) tid=(80,0,0)
GPGPU-Sim uArch: Shader 1 finished CTA #0 (13852,0), 2 CTAs running
GPGPU-Sim uArch: core:  1, cta: 0 initialized @(13853,0)
GPGPU-Sim PTX: 7900000 instructions simulated : ctaid=(120,0,0) tid=(454,0,0)
GPGPU-Sim uArch: cycles simulated: 14000  inst.: 7578676 (ipc=541.3) sim_rate=398877 (inst/sec) elapsed = 0:0:00:19 / Tue Jan 29 05:42:00 2019
GPGPU-Sim PTX: 8000000 instructions simulated : ctaid=(129,0,0) tid=(347,0,0)
GPGPU-Sim uArch: Shader 2 finished CTA #1 (14058,0), 2 CTAs running
GPGPU-Sim uArch: core:  2, cta: 1 initialized @(14059,0)
GPGPU-Sim PTX: 8100000 instructions simulated : ctaid=(114,0,0) tid=(89,0,0)
GPGPU-Sim uArch: Shader 1 finished CTA #1 (14214,0), 2 CTAs running
GPGPU-Sim uArch: core:  1, cta: 1 initialized @(14215,0)
GPGPU-Sim PTX: 8200000 instructions simulated : ctaid=(131,0,0) tid=(151,0,0)
GPGPU-Sim uArch: Shader 8 finished CTA #1 (14352,0), 2 CTAs running
GPGPU-Sim uArch: core:  8, cta: 1 initialized @(14353,0)
GPGPU-Sim PTX: 8300000 instructions simulated : ctaid=(101,0,0) tid=(84,0,0)
GPGPU-Sim uArch: cycles simulated: 14500  inst.: 7945735 (ipc=548.0) sim_rate=397286 (inst/sec) elapsed = 0:0:00:20 / Tue Jan 29 05:42:01 2019
GPGPU-Sim PTX: 8400000 instructions simulated : ctaid=(106,0,0) tid=(41,0,0)
GPGPU-Sim PTX: 8500000 instructions simulated : ctaid=(112,0,0) tid=(5,0,0)
GPGPU-Sim uArch: Shader 5 finished CTA #0 (14741,0), 2 CTAs running
GPGPU-Sim uArch: core:  5, cta: 0 initialized @(14742,0)
GPGPU-Sim PTX: 8600000 instructions simulated : ctaid=(121,0,0) tid=(392,0,0)
GPGPU-Sim uArch: Shader 12 finished CTA #0 (14939,0), 2 CTAs running
GPGPU-Sim uArch: core: 12, cta: 0 initialized @(14940,0)
GPGPU-Sim PTX: 8700000 instructions simulated : ctaid=(122,0,0) tid=(294,0,0)
GPGPU-Sim uArch: cycles simulated: 15000  inst.: 8296869 (ipc=553.1) sim_rate=395089 (inst/sec) elapsed = 0:0:00:21 / Tue Jan 29 05:42:02 2019
GPGPU-Sim uArch: Shader 3 finished CTA #0 (15113,0), 2 CTAs running
GPGPU-Sim uArch: core:  3, cta: 0 initialized @(15114,0)
GPGPU-Sim PTX: 8800000 instructions simulated : ctaid=(124,0,0) tid=(185,0,0)
GPGPU-Sim uArch: Shader 2 finished CTA #2 (15145,0), 2 CTAs running
GPGPU-Sim uArch: core:  2, cta: 2 initialized @(15146,0)
GPGPU-Sim uArch: Shader 11 finished CTA #0 (15186,0), 2 CTAs running
GPGPU-Sim uArch: core: 11, cta: 0 initialized @(15187,0)
GPGPU-Sim uArch: Shader 6 finished CTA #0 (15244,0), 2 CTAs running
GPGPU-Sim uArch: core:  6, cta: 0 initialized @(15245,0)
GPGPU-Sim uArch: Shader 8 finished CTA #0 (15265,0), 2 CTAs running
GPGPU-Sim uArch: core:  8, cta: 0 initialized @(15266,0)
GPGPU-Sim PTX: 8900000 instructions simulated : ctaid=(136,0,0) tid=(382,0,0)
GPGPU-Sim uArch: Shader 1 finished CTA #2 (15270,0), 2 CTAs running
GPGPU-Sim uArch: core:  1, cta: 2 initialized @(15271,0)
GPGPU-Sim uArch: Shader 0 finished CTA #0 (15324,0), 2 CTAs running
GPGPU-Sim uArch: core:  0, cta: 0 initialized @(15325,0)
GPGPU-Sim uArch: Shader 9 finished CTA #0 (15352,0), 2 CTAs running
GPGPU-Sim uArch: core:  9, cta: 0 initialized @(15353,0)
GPGPU-Sim uArch: Shader 14 finished CTA #0 (15391,0), 2 CTAs running
GPGPU-Sim uArch: core: 14, cta: 0 initialized @(15392,0)
GPGPU-Sim PTX: 9000000 instructions simulated : ctaid=(109,0,0) tid=(239,0,0)
GPGPU-Sim uArch: cycles simulated: 15500  inst.: 8652949 (ipc=558.3) sim_rate=393315 (inst/sec) elapsed = 0:0:00:22 / Tue Jan 29 05:42:03 2019
GPGPU-Sim PTX: 9100000 instructions simulated : ctaid=(148,0,0) tid=(456,0,0)
GPGPU-Sim PTX: 9200000 instructions simulated : ctaid=(123,0,0) tid=(351,0,0)
GPGPU-Sim uArch: Shader 10 finished CTA #0 (15671,0), 2 CTAs running
GPGPU-Sim uArch: core: 10, cta: 0 initialized @(15672,0)
GPGPU-Sim uArch: Shader 7 finished CTA #0 (15736,0), 2 CTAs running
GPGPU-Sim uArch: core:  7, cta: 0 initialized @(15737,0)
GPGPU-Sim uArch: Shader 4 finished CTA #0 (15786,0), 2 CTAs running
GPGPU-Sim uArch: core:  4, cta: 0 initialized @(15787,0)
GPGPU-Sim PTX: 9300000 instructions simulated : ctaid=(122,0,0) tid=(348,0,0)
GPGPU-Sim uArch: Shader 3 finished CTA #1 (15920,0), 2 CTAs running
GPGPU-Sim uArch: core:  3, cta: 1 initialized @(15921,0)
GPGPU-Sim PTX: 9400000 instructions simulated : ctaid=(125,0,0) tid=(302,0,0)
GPGPU-Sim uArch: cycles simulated: 16000  inst.: 9006605 (ipc=562.9) sim_rate=391591 (inst/sec) elapsed = 0:0:00:23 / Tue Jan 29 05:42:04 2019
GPGPU-Sim uArch: Shader 8 finished CTA #2 (16005,0), 2 CTAs running
GPGPU-Sim uArch: core:  8, cta: 2 initialized @(16006,0)
GPGPU-Sim uArch: Shader 5 finished CTA #1 (16039,0), 2 CTAs running
GPGPU-Sim uArch: core:  5, cta: 1 initialized @(16040,0)
GPGPU-Sim PTX: 9500000 instructions simulated : ctaid=(132,0,0) tid=(403,0,0)
GPGPU-Sim uArch: Shader 12 finished CTA #1 (16118,0), 2 CTAs running
GPGPU-Sim uArch: core: 12, cta: 1 initialized @(16119,0)
GPGPU-Sim uArch: Shader 11 finished CTA #1 (16172,0), 2 CTAs running
GPGPU-Sim uArch: core: 11, cta: 1 initialized @(16173,0)
GPGPU-Sim PTX: 9600000 instructions simulated : ctaid=(148,0,0) tid=(133,0,0)
GPGPU-Sim uArch: Shader 13 finished CTA #0 (16229,0), 2 CTAs running
GPGPU-Sim uArch: core: 13, cta: 0 initialized @(16230,0)
GPGPU-Sim uArch: Shader 4 finished CTA #1 (16330,0), 2 CTAs running
GPGPU-Sim uArch: core:  4, cta: 1 initialized @(16331,0)
GPGPU-Sim uArch: Shader 10 finished CTA #1 (16341,0), 2 CTAs running
GPGPU-Sim uArch: core: 10, cta: 1 initialized @(16342,0)
GPGPU-Sim uArch: Shader 6 finished CTA #1 (16388,0), 2 CTAs running
GPGPU-Sim uArch: core:  6, cta: 1 initialized @(16389,0)
GPGPU-Sim PTX: 9700000 instructions simulated : ctaid=(162,0,0) tid=(196,0,0)
GPGPU-Sim uArch: Shader 7 finished CTA #1 (16420,0), 2 CTAs running
GPGPU-Sim uArch: core:  7, cta: 1 initialized @(16421,0)
GPGPU-Sim uArch: cycles simulated: 16500  inst.: 9297895 (ipc=563.5) sim_rate=387412 (inst/sec) elapsed = 0:0:00:24 / Tue Jan 29 05:42:05 2019
GPGPU-Sim uArch: Shader 9 finished CTA #1 (16573,0), 2 CTAs running
GPGPU-Sim uArch: core:  9, cta: 1 initialized @(16574,0)
GPGPU-Sim uArch: Shader 14 finished CTA #1 (16581,0), 2 CTAs running
GPGPU-Sim uArch: core: 14, cta: 1 initialized @(16582,0)
GPGPU-Sim PTX: 9800000 instructions simulated : ctaid=(165,0,0) tid=(179,0,0)
GPGPU-Sim uArch: Shader 4 finished CTA #2 (16602,0), 2 CTAs running
GPGPU-Sim uArch: core:  4, cta: 2 initialized @(16603,0)
GPGPU-Sim uArch: Shader 0 finished CTA #1 (16620,0), 2 CTAs running
GPGPU-Sim uArch: core:  0, cta: 1 initialized @(16621,0)
GPGPU-Sim uArch: Shader 5 finished CTA #2 (16670,0), 2 CTAs running
GPGPU-Sim uArch: core:  5, cta: 2 initialized @(16671,0)
GPGPU-Sim uArch: Shader 13 finished CTA #1 (16676,0), 2 CTAs running
GPGPU-Sim uArch: core: 13, cta: 1 initialized @(16677,0)
GPGPU-Sim uArch: Shader 12 finished CTA #2 (16677,0), 2 CTAs running
GPGPU-Sim uArch: core: 12, cta: 2 initialized @(16678,0)
GPGPU-Sim uArch: Shader 11 finished CTA #2 (16680,0), 2 CTAs running
GPGPU-Sim uArch: core: 11, cta: 2 initialized @(16681,0)
GPGPU-Sim PTX: 9900000 instructions simulated : ctaid=(170,0,0) tid=(47,0,0)
GPGPU-Sim uArch: Shader 3 finished CTA #2 (16765,0), 2 CTAs running
GPGPU-Sim uArch: core:  3, cta: 2 initialized @(16766,0)
GPGPU-Sim uArch: Shader 6 finished CTA #2 (16785,0), 2 CTAs running
GPGPU-Sim uArch: core:  6, cta: 2 initialized @(16786,0)
GPGPU-Sim uArch: Shader 7 finished CTA #2 (16789,0), 2 CTAs running
GPGPU-Sim uArch: core:  7, cta: 2 initialized @(16790,0)
GPGPU-Sim uArch: Shader 10 finished CTA #2 (16814,0), 2 CTAs running
GPGPU-Sim uArch: core: 10, cta: 2 initialized @(16815,0)
GPGPU-Sim uArch: Shader 9 finished CTA #2 (16887,0), 2 CTAs running
GPGPU-Sim uArch: core:  9, cta: 2 initialized @(16888,0)
GPGPU-Sim PTX: 10000000 instructions simulated : ctaid=(140,0,0) tid=(301,0,0)
GPGPU-Sim uArch: cycles simulated: 17000  inst.: 9573449 (ipc=563.1) sim_rate=382937 (inst/sec) elapsed = 0:0:00:25 / Tue Jan 29 05:42:06 2019
GPGPU-Sim PTX: 10100000 instructions simulated : ctaid=(147,0,0) tid=(427,0,0)
GPGPU-Sim uArch: Shader 13 finished CTA #2 (17162,0), 2 CTAs running
GPGPU-Sim uArch: core: 13, cta: 2 initialized @(17163,0)
GPGPU-Sim PTX: 10200000 instructions simulated : ctaid=(177,0,0) tid=(236,0,0)
GPGPU-Sim uArch: Shader 14 finished CTA #2 (17220,0), 2 CTAs running
GPGPU-Sim uArch: core: 14, cta: 2 initialized @(17221,0)
GPGPU-Sim uArch: Shader 0 finished CTA #2 (17225,0), 2 CTAs running
GPGPU-Sim uArch: core:  0, cta: 2 initialized @(17226,0)
GPGPU-Sim PTX: 10300000 instructions simulated : ctaid=(162,0,0) tid=(492,0,0)
GPGPU-Sim PTX: 10400000 instructions simulated : ctaid=(169,0,0) tid=(7,0,0)
GPGPU-Sim uArch: cycles simulated: 17500  inst.: 9939708 (ipc=568.0) sim_rate=382296 (inst/sec) elapsed = 0:0:00:26 / Tue Jan 29 05:42:07 2019
GPGPU-Sim PTX: 10500000 instructions simulated : ctaid=(164,0,0) tid=(370,0,0)
GPGPU-Sim uArch: Shader 1 finished CTA #0 (17596,0), 2 CTAs running
GPGPU-Sim uArch: core:  1, cta: 0 initialized @(17597,0)
GPGPU-Sim uArch: Shader 2 finished CTA #0 (17621,0), 2 CTAs running
GPGPU-Sim uArch: core:  2, cta: 0 initialized @(17622,0)
GPGPU-Sim PTX: 10600000 instructions simulated : ctaid=(140,0,0) tid=(211,0,0)
GPGPU-Sim uArch: Shader 8 finished CTA #1 (17761,0), 2 CTAs running
GPGPU-Sim uArch: core:  8, cta: 1 initialized @(17762,0)
GPGPU-Sim PTX: 10700000 instructions simulated : ctaid=(181,0,0) tid=(187,0,0)
GPGPU-Sim uArch: Shader 2 finished CTA #1 (17974,0), 2 CTAs running
GPGPU-Sim PTX: 10800000 instructions simulated : ctaid=(166,0,0) tid=(400,0,0)
GPGPU-Sim uArch: core:  2, cta: 1 initialized @(17975,0)
GPGPU-Sim uArch: cycles simulated: 18000  inst.: 10304478 (ipc=572.5) sim_rate=381647 (inst/sec) elapsed = 0:0:00:27 / Tue Jan 29 05:42:08 2019
GPGPU-Sim PTX: 10900000 instructions simulated : ctaid=(143,0,0) tid=(159,0,0)
GPGPU-Sim uArch: Shader 5 finished CTA #0 (18136,0), 2 CTAs running
GPGPU-Sim uArch: core:  5, cta: 0 initialized @(18137,0)
GPGPU-Sim uArch: Shader 1 finished CTA #1 (18164,0), 2 CTAs running
GPGPU-Sim uArch: core:  1, cta: 1 initialized @(18165,0)
GPGPU-Sim PTX: 11000000 instructions simulated : ctaid=(151,0,0) tid=(415,0,0)
GPGPU-Sim uArch: Shader 12 finished CTA #0 (18295,0), 2 CTAs running
GPGPU-Sim uArch: core: 12, cta: 0 initialized @(18296,0)
GPGPU-Sim PTX: 11100000 instructions simulated : ctaid=(186,0,0) tid=(395,0,0)
GPGPU-Sim PTX: 11200000 instructions simulated : ctaid=(176,0,0) tid=(251,0,0)
GPGPU-Sim uArch: cycles simulated: 18500  inst.: 10682370 (ipc=577.4) sim_rate=381513 (inst/sec) elapsed = 0:0:00:28 / Tue Jan 29 05:42:09 2019
GPGPU-Sim PTX: 11300000 instructions simulated : ctaid=(174,0,0) tid=(69,0,0)
GPGPU-Sim PTX: 11400000 instructions simulated : ctaid=(175,0,0) tid=(329,0,0)
GPGPU-Sim PTX: 11500000 instructions simulated : ctaid=(167,0,0) tid=(484,0,0)
GPGPU-Sim uArch: cycles simulated: 19000  inst.: 11040293 (ipc=581.1) sim_rate=380699 (inst/sec) elapsed = 0:0:00:29 / Tue Jan 29 05:42:10 2019
GPGPU-Sim PTX: 11600000 instructions simulated : ctaid=(168,0,0) tid=(41,0,0)
GPGPU-Sim uArch: Shader 1 finished CTA #2 (19145,0), 2 CTAs running
GPGPU-Sim PTX: 11700000 instructions simulated : ctaid=(165,0,0) tid=(448,0,0)
GPGPU-Sim uArch: core:  1, cta: 2 initialized @(19146,0)
GPGPU-Sim uArch: Shader 2 finished CTA #2 (19183,0), 2 CTAs running
GPGPU-Sim uArch: core:  2, cta: 2 initialized @(19184,0)
GPGPU-Sim uArch: Shader 6 finished CTA #0 (19265,0), 2 CTAs running
GPGPU-Sim uArch: core:  6, cta: 0 initialized @(19266,0)
GPGPU-Sim PTX: 11800000 instructions simulated : ctaid=(166,0,0) tid=(78,0,0)
GPGPU-Sim uArch: Shader 8 finished CTA #0 (19285,0), 2 CTAs running
GPGPU-Sim uArch: core:  8, cta: 0 initialized @(19286,0)
GPGPU-Sim PTX: 11900000 instructions simulated : ctaid=(181,0,0) tid=(130,0,0)
GPGPU-Sim uArch: Shader 11 finished CTA #0 (19439,0), 2 CTAs running
GPGPU-Sim uArch: core: 11, cta: 0 initialized @(19440,0)
GPGPU-Sim uArch: Shader 14 finished CTA #0 (19483,0), 2 CTAs running
GPGPU-Sim uArch: core: 14, cta: 0 initialized @(19484,0)
GPGPU-Sim uArch: cycles simulated: 19500  inst.: 11404265 (ipc=584.8) sim_rate=380142 (inst/sec) elapsed = 0:0:00:30 / Tue Jan 29 05:42:11 2019
GPGPU-Sim PTX: 12000000 instructions simulated : ctaid=(191,0,0) tid=(236,0,0)
GPGPU-Sim uArch: Shader 3 finished CTA #0 (19587,0), 2 CTAs running
GPGPU-Sim uArch: core:  3, cta: 0 initialized @(19588,0)
GPGPU-Sim uArch: Shader 9 finished CTA #0 (19607,0), 2 CTAs running
GPGPU-Sim uArch: core:  9, cta: 0 initialized @(19608,0)
GPGPU-Sim uArch: Shader 10 finished CTA #0 (19615,0), 2 CTAs running
GPGPU-Sim uArch: core: 10, cta: 0 initialized @(19616,0)
GPGPU-Sim uArch: Shader 0 finished CTA #0 (19623,0), 2 CTAs running
GPGPU-Sim uArch: core:  0, cta: 0 initialized @(19624,0)
GPGPU-Sim PTX: 12100000 instructions simulated : ctaid=(155,0,0) tid=(177,0,0)
GPGPU-Sim uArch: Shader 4 finished CTA #0 (19810,0), 2 CTAs running
GPGPU-Sim uArch: core:  4, cta: 0 initialized @(19811,0)
GPGPU-Sim PTX: 12200000 instructions simulated : ctaid=(162,0,0) tid=(400,0,0)
GPGPU-Sim uArch: Shader 7 finished CTA #0 (19875,0), 2 CTAs running
GPGPU-Sim uArch: core:  7, cta: 0 initialized @(19876,0)
GPGPU-Sim PTX: 12300000 instructions simulated : ctaid=(190,0,0) tid=(106,0,0)
GPGPU-Sim uArch: cycles simulated: 20000  inst.: 11767035 (ipc=588.4) sim_rate=379581 (inst/sec) elapsed = 0:0:00:31 / Tue Jan 29 05:42:12 2019
GPGPU-Sim uArch: Shader 5 finished CTA #1 (20019,0), 2 CTAs running
GPGPU-Sim uArch: core:  5, cta: 1 initialized @(20020,0)
GPGPU-Sim PTX: 12400000 instructions simulated : ctaid=(159,0,0) tid=(426,0,0)
GPGPU-Sim uArch: Shader 12 finished CTA #1 (20208,0), 2 CTAs running
GPGPU-Sim uArch: core: 12, cta: 1 initialized @(20209,0)
GPGPU-Sim PTX: 12500000 instructions simulated : ctaid=(198,0,0) tid=(311,0,0)
GPGPU-Sim uArch: Shader 4 finished CTA #1 (20219,0), 2 CTAs running
GPGPU-Sim uArch: core:  4, cta: 1 initialized @(20220,0)
GPGPU-Sim uArch: Shader 8 finished CTA #2 (20220,0), 2 CTAs running
GPGPU-Sim uArch: core:  8, cta: 2 initialized @(20221,0)
GPGPU-Sim PTX: 12600000 instructions simulated : ctaid=(184,0,0) tid=(35,0,0)
GPGPU-Sim PTX: 12700000 instructions simulated : ctaid=(177,0,0) tid=(364,0,0)
GPGPU-Sim uArch: Shader 3 finished CTA #1 (20543,0), 2 CTAs running
GPGPU-Sim uArch: core:  3, cta: 1 initialized @(20544,0)
GPGPU-Sim uArch: Shader 6 finished CTA #1 (20590,0), 2 CTAs running
GPGPU-Sim uArch: core:  6, cta: 1 initialized @(20591,0)
GPGPU-Sim uArch: Shader 7 finished CTA #1 (20593,0), 2 CTAs running
GPGPU-Sim uArch: core:  7, cta: 1 initialized @(20594,0)
GPGPU-Sim PTX: 12800000 instructions simulated : ctaid=(180,0,0) tid=(146,0,0)
GPGPU-Sim uArch: Shader 10 finished CTA #1 (20648,0), 2 CTAs running
GPGPU-Sim uArch: core: 10, cta: 1 initialized @(20649,0)
GPGPU-Sim uArch: Shader 11 finished CTA #1 (20649,0), 2 CTAs running
GPGPU-Sim uArch: core: 11, cta: 1 initialized @(20650,0)
GPGPU-Sim uArch: Shader 13 finished CTA #0 (20652,0), 2 CTAs running
GPGPU-Sim uArch: core: 13, cta: 0 initialized @(20653,0)
GPGPU-Sim PTX: 12900000 instructions simulated : ctaid=(199,0,0) tid=(219,0,0)
GPGPU-Sim uArch: Shader 0 finished CTA #1 (20870,0), 2 CTAs running
GPGPU-Sim uArch: core:  0, cta: 1 initialized @(20871,0)
GPGPU-Sim uArch: Shader 14 finished CTA #1 (20960,0), 2 CTAs running
GPGPU-Sim uArch: core: 14, cta: 1 initialized @(20961,0)
GPGPU-Sim PTX: 13000000 instructions simulated : ctaid=(202,0,0) tid=(115,0,0)
GPGPU-Sim uArch: cycles simulated: 21000  inst.: 12397300 (ipc=590.3) sim_rate=387415 (inst/sec) elapsed = 0:0:00:32 / Tue Jan 29 05:42:13 2019
GPGPU-Sim uArch: Shader 9 finished CTA #1 (21012,0), 2 CTAs running
GPGPU-Sim uArch: core:  9, cta: 1 initialized @(21013,0)
GPGPU-Sim PTX: 13100000 instructions simulated : ctaid=(192,0,0) tid=(324,0,0)
GPGPU-Sim uArch: Shader 3 finished CTA #2 (21209,0), 2 CTAs running
GPGPU-Sim uArch: core:  3, cta: 2 initialized @(21210,0)
GPGPU-Sim uArch: Shader 13 finished CTA #1 (21268,0), 2 CTAs running
GPGPU-Sim uArch: core: 13, cta: 1 initialized @(21269,0)
GPGPU-Sim uArch: Shader 11 finished CTA #2 (21307,0), 2 CTAs running
GPGPU-Sim uArch: core: 11, cta: 2 initialized @(21308,0)
GPGPU-Sim uArch: Shader 7 finished CTA #2 (21327,0), 2 CTAs running
GPGPU-Sim uArch: core:  7, cta: 2 initialized @(21328,0)
GPGPU-Sim uArch: Shader 5 finished CTA #2 (21332,0), 2 CTAs running
GPGPU-Sim uArch: core:  5, cta: 2 initialized @(21333,0)
GPGPU-Sim PTX: 13200000 instructions simulated : ctaid=(192,0,0) tid=(448,0,0)
GPGPU-Sim uArch: Shader 6 finished CTA #2 (21396,0), 2 CTAs running
GPGPU-Sim uArch: core:  6, cta: 2 initialized @(21397,0)
GPGPU-Sim uArch: Shader 10 finished CTA #2 (21422,0), 2 CTAs running
GPGPU-Sim uArch: core: 10, cta: 2 initialized @(21423,0)
GPGPU-Sim uArch: cycles simulated: 21500  inst.: 12669445 (ipc=589.3) sim_rate=383922 (inst/sec) elapsed = 0:0:00:33 / Tue Jan 29 05:42:14 2019
GPGPU-Sim uArch: Shader 4 finished CTA #2 (21500,0), 2 CTAs running
GPGPU-Sim uArch: core:  4, cta: 2 initialized @(21501,0)
GPGPU-Sim PTX: 13300000 instructions simulated : ctaid=(186,0,0) tid=(374,0,0)
GPGPU-Sim uArch: Shader 12 finished CTA #2 (21521,0), 2 CTAs running
GPGPU-Sim uArch: core: 12, cta: 2 initialized @(21522,0)
GPGPU-Sim PTX: 13400000 instructions simulated : ctaid=(205,0,0) tid=(225,0,0)
GPGPU-Sim uArch: Shader 9 finished CTA #2 (21700,0), 2 CTAs running
GPGPU-Sim uArch: core:  9, cta: 2 initialized @(21701,0)
GPGPU-Sim uArch: Shader 14 finished CTA #2 (21768,0), 2 CTAs running
GPGPU-Sim uArch: core: 14, cta: 2 initialized @(21769,0)
GPGPU-Sim uArch: Shader 0 finished CTA #2 (21776,0), 2 CTAs running
GPGPU-Sim uArch: Shader 2 finished CTA #0 (21776,0), 2 CTAs running
GPGPU-Sim uArch: core:  0, cta: 2 initialized @(21777,0)
GPGPU-Sim uArch: core:  2, cta: 0 initialized @(21777,0)
GPGPU-Sim PTX: 13500000 instructions simulated : ctaid=(195,0,0) tid=(124,0,0)
GPGPU-Sim uArch: Shader 13 finished CTA #2 (21856,0), 2 CTAs running
GPGPU-Sim uArch: core: 13, cta: 2 initialized @(21857,0)
GPGPU-Sim uArch: Shader 1 finished CTA #0 (21894,0), 2 CTAs running
GPGPU-Sim uArch: core:  1, cta: 0 initialized @(21895,0)
GPGPU-Sim PTX: 13600000 instructions simulated : ctaid=(188,0,0) tid=(7,0,0)
GPGPU-Sim uArch: Shader 5 finished CTA #0 (21961,0), 2 CTAs running
GPGPU-Sim uArch: core:  5, cta: 0 initialized @(21962,0)
GPGPU-Sim uArch: cycles simulated: 22000  inst.: 13020899 (ipc=591.9) sim_rate=382967 (inst/sec) elapsed = 0:0:00:34 / Tue Jan 29 05:42:15 2019
GPGPU-Sim PTX: 13700000 instructions simulated : ctaid=(226,0,0) tid=(111,0,0)
GPGPU-Sim uArch: Shader 8 finished CTA #1 (22056,0), 2 CTAs running
GPGPU-Sim uArch: core:  8, cta: 1 initialized @(22057,0)
GPGPU-Sim PTX: 13800000 instructions simulated : ctaid=(198,0,0) tid=(299,0,0)
GPGPU-Sim uArch: Shader 12 finished CTA #0 (22283,0), 2 CTAs running
GPGPU-Sim uArch: core: 12, cta: 0 initialized @(22284,0)
GPGPU-Sim uArch: Shader 2 finished CTA #1 (22301,0), 2 CTAs running
GPGPU-Sim uArch: core:  2, cta: 1 initialized @(22302,0)
GPGPU-Sim PTX: 13900000 instructions simulated : ctaid=(203,0,0) tid=(490,0,0)
GPGPU-Sim uArch: Shader 1 finished CTA #1 (22335,0), 2 CTAs running
GPGPU-Sim uArch: core:  1, cta: 1 initialized @(22336,0)
GPGPU-Sim PTX: 14000000 instructions simulated : ctaid=(225,0,0) tid=(439,0,0)
GPGPU-Sim uArch: cycles simulated: 22500  inst.: 13378261 (ipc=594.6) sim_rate=382236 (inst/sec) elapsed = 0:0:00:35 / Tue Jan 29 05:42:16 2019
GPGPU-Sim PTX: 14100000 instructions simulated : ctaid=(230,0,0) tid=(28,0,0)
GPGPU-Sim PTX: 14200000 instructions simulated : ctaid=(224,0,0) tid=(467,0,0)
GPGPU-Sim uArch: Shader 2 finished CTA #2 (22784,0), 2 CTAs running
GPGPU-Sim uArch: core:  2, cta: 2 initialized @(22785,0)
GPGPU-Sim uArch: Shader 6 finished CTA #0 (22804,0), 2 CTAs running
GPGPU-Sim uArch: core:  6, cta: 0 initialized @(22805,0)
GPGPU-Sim PTX: 14300000 instructions simulated : ctaid=(216,0,0) tid=(475,0,0)
GPGPU-Sim PTX: 14400000 instructions simulated : ctaid=(218,0,0) tid=(505,0,0)
GPGPU-Sim uArch: Shader 1 finished CTA #2 (22985,0), 2 CTAs running
GPGPU-Sim uArch: core:  1, cta: 2 initialized @(22986,0)
GPGPU-Sim uArch: cycles simulated: 23000  inst.: 13746138 (ipc=597.7) sim_rate=381837 (inst/sec) elapsed = 0:0:00:36 / Tue Jan 29 05:42:17 2019
GPGPU-Sim uArch: Shader 8 finished CTA #0 (23088,0), 2 CTAs running
GPGPU-Sim uArch: core:  8, cta: 0 initialized @(23089,0)
GPGPU-Sim PTX: 14500000 instructions simulated : ctaid=(234,0,0) tid=(443,0,0)
GPGPU-Sim uArch: Shader 0 finished CTA #0 (23132,0), 2 CTAs running
GPGPU-Sim uArch: core:  0, cta: 0 initialized @(23133,0)
GPGPU-Sim uArch: Shader 14 finished CTA #0 (23144,0), 2 CTAs running
GPGPU-Sim uArch: core: 14, cta: 0 initialized @(23145,0)
GPGPU-Sim uArch: Shader 10 finished CTA #0 (23154,0), 2 CTAs running
GPGPU-Sim uArch: core: 10, cta: 0 initialized @(23155,0)
GPGPU-Sim PTX: 14600000 instructions simulated : ctaid=(229,0,0) tid=(190,0,0)
GPGPU-Sim PTX: 14700000 instructions simulated : ctaid=(224,0,0) tid=(422,0,0)
GPGPU-Sim PTX: 14800000 instructions simulated : ctaid=(199,0,0) tid=(283,0,0)
GPGPU-Sim uArch: cycles simulated: 23500  inst.: 14123499 (ipc=601.0) sim_rate=381716 (inst/sec) elapsed = 0:0:00:37 / Tue Jan 29 05:42:18 2019
GPGPU-Sim PTX: 14900000 instructions simulated : ctaid=(217,0,0) tid=(475,0,0)
GPGPU-Sim uArch: Shader 11 finished CTA #0 (23660,0), 2 CTAs running
GPGPU-Sim uArch: core: 11, cta: 0 initialized @(23661,0)
GPGPU-Sim uArch: Shader 3 finished CTA #0 (23699,0), 2 CTAs running
GPGPU-Sim uArch: core:  3, cta: 0 initialized @(23700,0)
GPGPU-Sim uArch: Shader 5 finished CTA #1 (23704,0), 2 CTAs running
GPGPU-Sim uArch: core:  5, cta: 1 initialized @(23705,0)
GPGPU-Sim PTX: 15000000 instructions simulated : ctaid=(216,0,0) tid=(16,0,0)
GPGPU-Sim PTX: 15100000 instructions simulated : ctaid=(203,0,0) tid=(192,0,0)
GPGPU-Sim uArch: Shader 8 finished CTA #2 (23909,0), 2 CTAs running
GPGPU-Sim uArch: core:  8, cta: 2 initialized @(23910,0)
GPGPU-Sim PTX: 15200000 instructions simulated : ctaid=(224,0,0) tid=(403,0,0)
GPGPU-Sim uArch: cycles simulated: 24000  inst.: 14493693 (ipc=603.9) sim_rate=381412 (inst/sec) elapsed = 0:0:00:38 / Tue Jan 29 05:42:19 2019
GPGPU-Sim uArch: Shader 7 finished CTA #0 (24079,0), 2 CTAs running
GPGPU-Sim uArch: core:  7, cta: 0 initialized @(24080,0)
GPGPU-Sim PTX: 15300000 instructions simulated : ctaid=(230,0,0) tid=(161,0,0)
GPGPU-Sim uArch: Shader 9 finished CTA #0 (24238,0), 2 CTAs running
GPGPU-Sim uArch: core:  9, cta: 0 initialized @(24239,0)
GPGPU-Sim PTX: 15400000 instructions simulated : ctaid=(237,0,0) tid=(86,0,0)
GPGPU-Sim uArch: Shader 4 finished CTA #0 (24290,0), 2 CTAs running
GPGPU-Sim uArch: core:  4, cta: 0 initialized @(24291,0)
GPGPU-Sim PTX: 15500000 instructions simulated : ctaid=(205,0,0) tid=(111,0,0)
GPGPU-Sim uArch: cycles simulated: 24500  inst.: 14852276 (ipc=606.2) sim_rate=380827 (inst/sec) elapsed = 0:0:00:39 / Tue Jan 29 05:42:20 2019
GPGPU-Sim uArch: Shader 13 finished CTA #0 (24528,0), 2 CTAs running
GPGPU-Sim uArch: core: 13, cta: 0 initialized @(24529,0)
GPGPU-Sim PTX: 15600000 instructions simulated : ctaid=(225,0,0) tid=(216,0,0)
GPGPU-Sim uArch: Shader 3 finished CTA #1 (24538,0), 2 CTAs running
GPGPU-Sim uArch: core:  3, cta: 1 initialized @(24539,0)
GPGPU-Sim uArch: Shader 4 finished CTA #1 (24652,0), 2 CTAs running
GPGPU-Sim uArch: core:  4, cta: 1 initialized @(24653,0)
GPGPU-Sim PTX: 15700000 instructions simulated : ctaid=(235,0,0) tid=(30,0,0)
GPGPU-Sim uArch: Shader 12 finished CTA #1 (24704,0), 2 CTAs running
GPGPU-Sim uArch: core: 12, cta: 1 initialized @(24705,0)
GPGPU-Sim PTX: 15800000 instructions simulated : ctaid=(235,0,0) tid=(357,0,0)
GPGPU-Sim uArch: Shader 10 finished CTA #1 (24841,0), 2 CTAs running
GPGPU-Sim uArch: core: 10, cta: 1 initialized @(24842,0)
GPGPU-Sim uArch: Shader 6 finished CTA #1 (24891,0), 2 CTAs running
GPGPU-Sim uArch: core:  6, cta: 1 initialized @(24892,0)
GPGPU-Sim PTX: 15900000 instructions simulated : ctaid=(218,0,0) tid=(11,0,0)
GPGPU-Sim uArch: Shader 0 finished CTA #1 (24937,0), 2 CTAs running
GPGPU-Sim uArch: core:  0, cta: 1 initialized @(24938,0)
GPGPU-Sim uArch: cycles simulated: 25000  inst.: 15214558 (ipc=608.6) sim_rate=380363 (inst/sec) elapsed = 0:0:00:40 / Tue Jan 29 05:42:21 2019
GPGPU-Sim uArch: Shader 14 finished CTA #1 (25034,0), 2 CTAs running
GPGPU-Sim uArch: core: 14, cta: 1 initialized @(25035,0)
GPGPU-Sim uArch: Shader 7 finished CTA #1 (25036,0), 2 CTAs running
GPGPU-Sim uArch: core:  7, cta: 1 initialized @(25037,0)
GPGPU-Sim uArch: Shader 11 finished CTA #1 (25052,0), 2 CTAs running
GPGPU-Sim uArch: core: 11, cta: 1 initialized @(25053,0)
GPGPU-Sim uArch: Shader 9 finished CTA #1 (25061,0), 2 CTAs running
GPGPU-Sim uArch: core:  9, cta: 1 initialized @(25062,0)
GPGPU-Sim PTX: 16000000 instructions simulated : ctaid=(225,0,0) tid=(7,0,0)
GPGPU-Sim PTX: 16100000 instructions simulated : ctaid=(251,0,0) tid=(441,0,0)
GPGPU-Sim PTX: 16200000 instructions simulated : ctaid=(238,0,0) tid=(271,0,0)
GPGPU-Sim uArch: Shader 13 finished CTA #1 (25331,0), 2 CTAs running
GPGPU-Sim uArch: core: 13, cta: 1 initialized @(25332,0)
GPGPU-Sim uArch: Shader 11 finished CTA #2 (25399,0), 2 CTAs running
GPGPU-Sim uArch: core: 11, cta: 2 initialized @(25400,0)
GPGPU-Sim PTX: 16300000 instructions simulated : ctaid=(242,0,0) tid=(385,0,0)
GPGPU-Sim uArch: Shader 5 finished CTA #2 (25483,0), 2 CTAs running
GPGPU-Sim uArch: core:  5, cta: 2 initialized @(25484,0)
GPGPU-Sim uArch: cycles simulated: 25500  inst.: 15578986 (ipc=610.9) sim_rate=379975 (inst/sec) elapsed = 0:0:00:41 / Tue Jan 29 05:42:22 2019
GPGPU-Sim PTX: 16400000 instructions simulated : ctaid=(243,0,0) tid=(77,0,0)
GPGPU-Sim uArch: Shader 7 finished CTA #2 (25597,0), 2 CTAs running
GPGPU-Sim uArch: core:  7, cta: 2 initialized @(25598,0)
GPGPU-Sim uArch: Shader 10 finished CTA #2 (25614,0), 2 CTAs running
GPGPU-Sim uArch: core: 10, cta: 2 initialized @(25615,0)
GPGPU-Sim uArch: Shader 3 finished CTA #2 (25625,0), 2 CTAs running
GPGPU-Sim uArch: core:  3, cta: 2 initialized @(25626,0)
GPGPU-Sim PTX: 16500000 instructions simulated : ctaid=(225,0,0) tid=(496,0,0)
GPGPU-Sim uArch: Shader 4 finished CTA #2 (25767,0), 2 CTAs running
GPGPU-Sim uArch: core:  4, cta: 2 initialized @(25768,0)
GPGPU-Sim uArch: Shader 2 finished CTA #0 (25828,0), 2 CTAs running
GPGPU-Sim uArch: core:  2, cta: 0 initialized @(25829,0)
GPGPU-Sim uArch: Shader 12 finished CTA #2 (25844,0), 2 CTAs running
GPGPU-Sim uArch: core: 12, cta: 2 initialized @(25845,0)
GPGPU-Sim uArch: Shader 1 finished CTA #0 (25852,0), 2 CTAs running
GPGPU-Sim uArch: core:  1, cta: 0 initialized @(25853,0)
GPGPU-Sim uArch: Shader 6 finished CTA #2 (25856,0), 2 CTAs running
GPGPU-Sim uArch: core:  6, cta: 2 initialized @(25857,0)
GPGPU-Sim PTX: 16600000 instructions simulated : ctaid=(244,0,0) tid=(362,0,0)
GPGPU-Sim PTX: 16700000 instructions simulated : ctaid=(256,0,0) tid=(444,0,0)
GPGPU-Sim uArch: cycles simulated: 26000  inst.: 15939248 (ipc=613.0) sim_rate=370680 (inst/sec) elapsed = 0:0:00:43 / Tue Jan 29 05:42:24 2019
GPGPU-Sim uArch: Shader 9 finished CTA #2 (26011,0), 2 CTAs running
GPGPU-Sim uArch: core:  9, cta: 2 initialized @(26012,0)
GPGPU-Sim uArch: Shader 14 finished CTA #2 (26022,0), 2 CTAs running
GPGPU-Sim uArch: core: 14, cta: 2 initialized @(26023,0)
GPGPU-Sim uArch: Shader 0 finished CTA #2 (26040,0), 2 CTAs running
GPGPU-Sim uArch: core:  0, cta: 2 initialized @(26041,0)
GPGPU-Sim uArch: Shader 8 finished CTA #1 (26068,0), 2 CTAs running
GPGPU-Sim uArch: core:  8, cta: 1 initialized @(26069,0)
GPGPU-Sim uArch: Shader 13 finished CTA #2 (26103,0), 2 CTAs running
GPGPU-Sim uArch: core: 13, cta: 2 initialized @(26104,0)
GPGPU-Sim PTX: 16800000 instructions simulated : ctaid=(239,0,0) tid=(407,0,0)
GPGPU-Sim uArch: Shader 5 finished CTA #0 (26162,0), 2 CTAs running
GPGPU-Sim uArch: core:  5, cta: 0 initialized @(26163,0)
GPGPU-Sim uArch: Shader 2 finished CTA #1 (26191,0), 2 CTAs running
GPGPU-Sim uArch: core:  2, cta: 1 initialized @(26192,0)
GPGPU-Sim PTX: 16900000 instructions simulated : ctaid=(250,0,0) tid=(1,0,0)
GPGPU-Sim uArch: Shader 1 finished CTA #1 (26346,0), 2 CTAs running
GPGPU-Sim uArch: core:  1, cta: 1 initialized @(26347,0)
GPGPU-Sim PTX: 17000000 instructions simulated : ctaid=(237,0,0) tid=(457,0,0)
GPGPU-Sim uArch: Shader 12 finished CTA #0 (26412,0), 2 CTAs running
GPGPU-Sim uArch: core: 12, cta: 0 initialized @(26413,0)
GPGPU-Sim PTX: 17100000 instructions simulated : ctaid=(263,0,0) tid=(69,0,0)
GPGPU-Sim uArch: cycles simulated: 26500  inst.: 16309258 (ipc=615.4) sim_rate=370664 (inst/sec) elapsed = 0:0:00:44 / Tue Jan 29 05:42:25 2019
GPGPU-Sim uArch: Shader 6 finished CTA #0 (26553,0), 2 CTAs running
GPGPU-Sim uArch: core:  6, cta: 0 initialized @(26554,0)
GPGPU-Sim uArch: Shader 10 finished CTA #0 (26616,0), 2 CTAs running
GPGPU-Sim uArch: core: 10, cta: 0 initialized @(26617,0)
GPGPU-Sim PTX: 17200000 instructions simulated : ctaid=(250,0,0) tid=(150,0,0)
GPGPU-Sim PTX: 17300000 instructions simulated : ctaid=(240,0,0) tid=(459,0,0)
GPGPU-Sim PTX: 17400000 instructions simulated : ctaid=(255,0,0) tid=(107,0,0)
GPGPU-Sim uArch: Shader 14 finished CTA #0 (26909,0), 2 CTAs running
GPGPU-Sim uArch: core: 14, cta: 0 initialized @(26910,0)
GPGPU-Sim uArch: cycles simulated: 27000  inst.: 16675618 (ipc=617.6) sim_rate=370569 (inst/sec) elapsed = 0:0:00:45 / Tue Jan 29 05:42:26 2019
GPGPU-Sim uArch: Shader 8 finished CTA #0 (27010,0), 2 CTAs running
GPGPU-Sim uArch: core:  8, cta: 0 initialized @(27011,0)
GPGPU-Sim PTX: 17500000 instructions simulated : ctaid=(240,0,0) tid=(446,0,0)
GPGPU-Sim uArch: Shader 2 finished CTA #2 (27037,0), 2 CTAs running
GPGPU-Sim uArch: core:  2, cta: 2 initialized @(27038,0)
GPGPU-Sim uArch: Shader 0 finished CTA #0 (27044,0), 2 CTAs running
GPGPU-Sim uArch: core:  0, cta: 0 initialized @(27045,0)
GPGPU-Sim PTX: 17600000 instructions simulated : ctaid=(241,0,0) tid=(18,0,0)
GPGPU-Sim uArch: Shader 1 finished CTA #2 (27170,0), 2 CTAs running
GPGPU-Sim uArch: core:  1, cta: 2 initialized @(27171,0)
GPGPU-Sim PTX: 17700000 instructions simulated : ctaid=(269,0,0) tid=(251,0,0)
GPGPU-Sim PTX: 17800000 instructions simulated : ctaid=(266,0,0) tid=(199,0,0)
GPGPU-Sim uArch: Shader 5 finished CTA #1 (27400,0), 2 CTAs running
GPGPU-Sim uArch: core:  5, cta: 1 initialized @(27401,0)
GPGPU-Sim uArch: Shader 3 finished CTA #0 (27455,0), 2 CTAs running
GPGPU-Sim uArch: core:  3, cta: 0 initialized @(27456,0)
GPGPU-Sim uArch: Shader 7 finished CTA #0 (27465,0), 2 CTAs running
GPGPU-Sim uArch: core:  7, cta: 0 initialized @(27466,0)
GPGPU-Sim uArch: cycles simulated: 27500  inst.: 17050247 (ipc=620.0) sim_rate=370657 (inst/sec) elapsed = 0:0:00:46 / Tue Jan 29 05:42:27 2019
GPGPU-Sim PTX: 17900000 instructions simulated : ctaid=(251,0,0) tid=(464,0,0)
GPGPU-Sim uArch: Shader 11 finished CTA #0 (27533,0), 2 CTAs running
GPGPU-Sim uArch: core: 11, cta: 0 initialized @(27534,0)
GPGPU-Sim PTX: 18000000 instructions simulated : ctaid=(284,0,0) tid=(156,0,0)
GPGPU-Sim PTX: 18100000 instructions simulated : ctaid=(279,0,0) tid=(495,0,0)
GPGPU-Sim uArch: Shader 9 finished CTA #0 (27856,0), 2 CTAs running
GPGPU-Sim uArch: core:  9, cta: 0 initialized @(27857,0)
GPGPU-Sim uArch: Shader 8 finished CTA #2 (27887,0), 2 CTAs running
GPGPU-Sim uArch: core:  8, cta: 2 initialized @(27888,0)
GPGPU-Sim PTX: 18200000 instructions simulated : ctaid=(277,0,0) tid=(119,0,0)
GPGPU-Sim uArch: Shader 13 finished CTA #0 (27949,0), 2 CTAs running
GPGPU-Sim uArch: core: 13, cta: 0 initialized @(27950,0)
GPGPU-Sim uArch: cycles simulated: 28000  inst.: 17425526 (ipc=622.3) sim_rate=370755 (inst/sec) elapsed = 0:0:00:47 / Tue Jan 29 05:42:28 2019
GPGPU-Sim PTX: 18300000 instructions simulated : ctaid=(272,0,0) tid=(37,0,0)
GPGPU-Sim PTX: 18400000 instructions simulated : ctaid=(266,0,0) tid=(155,0,0)
GPGPU-Sim uArch: Shader 12 finished CTA #1 (28248,0), 2 CTAs running
GPGPU-Sim uArch: core: 12, cta: 1 initialized @(28249,0)
GPGPU-Sim PTX: 18500000 instructions simulated : ctaid=(250,0,0) tid=(71,0,0)
GPGPU-Sim PTX: 18600000 instructions simulated : ctaid=(260,0,0) tid=(76,0,0)
GPGPU-Sim uArch: Shader 4 finished CTA #0 (28434,0), 2 CTAs running
GPGPU-Sim uArch: core:  4, cta: 0 initialized @(28435,0)
GPGPU-Sim uArch: Shader 3 finished CTA #1 (28488,0), 2 CTAs running
GPGPU-Sim uArch: core:  3, cta: 1 initialized @(28489,0)
GPGPU-Sim uArch: cycles simulated: 28500  inst.: 17786734 (ipc=624.1) sim_rate=370556 (inst/sec) elapsed = 0:0:00:48 / Tue Jan 29 05:42:29 2019
GPGPU-Sim uArch: Shader 6 finished CTA #1 (28556,0), 2 CTAs running
GPGPU-Sim uArch: core:  6, cta: 1 initialized @(28557,0)
GPGPU-Sim PTX: 18700000 instructions simulated : ctaid=(256,0,0) tid=(134,0,0)
GPGPU-Sim PTX: 18800000 instructions simulated : ctaid=(261,0,0) tid=(19,0,0)
GPGPU-Sim uArch: Shader 0 finished CTA #1 (28811,0), 2 CTAs running
GPGPU-Sim uArch: core:  0, cta: 1 initialized @(28812,0)
GPGPU-Sim uArch: Shader 4 finished CTA #1 (28821,0), 2 CTAs running
GPGPU-Sim PTX: 18900000 instructions simulated : ctaid=(290,0,0) tid=(489,0,0)
GPGPU-Sim uArch: core:  4, cta: 1 initialized @(28822,0)
GPGPU-Sim uArch: Shader 11 finished CTA #1 (28905,0), 2 CTAs running
GPGPU-Sim uArch: core: 11, cta: 1 initialized @(28906,0)
GPGPU-Sim uArch: Shader 7 finished CTA #1 (28925,0), 2 CTAs running
GPGPU-Sim uArch: core:  7, cta: 1 initialized @(28926,0)
GPGPU-Sim PTX: 19000000 instructions simulated : ctaid=(267,0,0) tid=(381,0,0)
GPGPU-Sim uArch: Shader 14 finished CTA #1 (28973,0), 2 CTAs running
GPGPU-Sim uArch: core: 14, cta: 1 initialized @(28974,0)
GPGPU-Sim uArch: Shader 10 finished CTA #1 (28978,0), 2 CTAs running
GPGPU-Sim uArch: core: 10, cta: 1 initialized @(28979,0)
GPGPU-Sim uArch: cycles simulated: 29000  inst.: 18152669 (ipc=626.0) sim_rate=370462 (inst/sec) elapsed = 0:0:00:49 / Tue Jan 29 05:42:30 2019
GPGPU-Sim uArch: Shader 9 finished CTA #1 (29061,0), 2 CTAs running
GPGPU-Sim uArch: core:  9, cta: 1 initialized @(29062,0)
GPGPU-Sim PTX: 19100000 instructions simulated : ctaid=(301,0,0) tid=(65,0,0)
GPGPU-Sim PTX: 19200000 instructions simulated : ctaid=(286,0,0) tid=(84,0,0)
GPGPU-Sim PTX: 19300000 instructions simulated : ctaid=(284,0,0) tid=(95,0,0)
GPGPU-Sim uArch: Shader 13 finished CTA #1 (29363,0), 2 CTAs running
GPGPU-Sim uArch: core: 13, cta: 1 initialized @(29364,0)
GPGPU-Sim uArch: Shader 11 finished CTA #2 (29370,0), 2 CTAs running
GPGPU-Sim uArch: core: 11, cta: 2 initialized @(29371,0)
GPGPU-Sim uArch: Shader 5 finished CTA #2 (29418,0), 2 CTAs running
GPGPU-Sim uArch: core:  5, cta: 2 initialized @(29419,0)
GPGPU-Sim PTX: 19400000 instructions simulated : ctaid=(265,0,0) tid=(489,0,0)
GPGPU-Sim uArch: cycles simulated: 29500  inst.: 18517353 (ipc=627.7) sim_rate=370347 (inst/sec) elapsed = 0:0:00:50 / Tue Jan 29 05:42:31 2019
GPGPU-Sim PTX: 19500000 instructions simulated : ctaid=(277,0,0) tid=(500,0,0)
GPGPU-Sim uArch: Shader 1 finished CTA #0 (29649,0), 2 CTAs running
GPGPU-Sim uArch: core:  1, cta: 0 initialized @(29650,0)
GPGPU-Sim uArch: Shader 3 finished CTA #2 (29679,0), 2 CTAs running
GPGPU-Sim uArch: core:  3, cta: 2 initialized @(29680,0)
GPGPU-Sim PTX: 19600000 instructions simulated : ctaid=(304,0,0) tid=(211,0,0)
GPGPU-Sim uArch: Shader 2 finished CTA #0 (29752,0), 2 CTAs running
GPGPU-Sim uArch: core:  2, cta: 0 initialized @(29753,0)
GPGPU-Sim PTX: 19700000 instructions simulated : ctaid=(272,0,0) tid=(216,0,0)
GPGPU-Sim uArch: Shader 10 finished CTA #2 (29886,0), 2 CTAs running
GPGPU-Sim uArch: core: 10, cta: 2 initialized @(29887,0)
GPGPU-Sim uArch: Shader 8 finished CTA #1 (29937,0), 2 CTAs running
GPGPU-Sim uArch: core:  8, cta: 1 initialized @(29938,0)
GPGPU-Sim uArch: Shader 6 finished CTA #2 (29960,0), 2 CTAs running
GPGPU-Sim uArch: core:  6, cta: 2 initialized @(29961,0)
GPGPU-Sim uArch: Shader 4 finished CTA #2 (29992,0), 2 CTAs running
GPGPU-Sim uArch: core:  4, cta: 2 initialized @(29993,0)
[...]
gpgpu_stall_shd_mem[g_mem_st][wb_rsrv_fail] = 0
gpgpu_stall_shd_mem[l_mem_ld][mshr_rc] = 0
gpgpu_stall_shd_mem[l_mem_ld][icnt_rc] = 0
gpgpu_stall_shd_mem[l_mem_ld][wb_icnt_rc] = 0
gpgpu_stall_shd_mem[l_mem_ld][wb_rsrv_fail] = 0
gpgpu_stall_shd_mem[l_mem_st][mshr_rc] = 0
gpgpu_stall_shd_mem[l_mem_st][icnt_rc] = 0
gpgpu_stall_shd_mem[l_mem_ld][wb_icnt_rc] = 0
gpgpu_stall_shd_mem[l_mem_ld][wb_rsrv_fail] = 0
gpu_reg_bank_conflict_stalls = 0
Warp Occupancy Distribution:
Stall:139673	W0_Idle:98687	W0_Scoreboard:376300	W1:7816	W2:7816	W3:0	W4:7816	W5:0	W6:0	W7:0	W8:7816	W9:0	W10:0	W11:0	W12:0	W13:0	W14:0	W15:0	W16:7816	W17:0	W18:0	W19:0	W20:0	W21:0	W22:0	W23:0	W24:0	W25:0	W26:0	W27:0	W28:0	W29:0	W30:0	W31:0	W32:2071170
traffic_breakdown_coretomem[CONST_ACC_R] = 120 {8:15,}
traffic_breakdown_coretomem[GLOBAL_ACC_R] = 250000 {8:31250,}
traffic_breakdown_coretomem[GLOBAL_ACC_W] = 625280 {40:15632,}
traffic_breakdown_coretomem[INST_ACC_R] = 600 {8:75,}
traffic_breakdown_memtocore[CONST_ACC_R] = 1080 {72:15,}
traffic_breakdown_memtocore[GLOBAL_ACC_R] = 4250000 {136:31250,}
traffic_breakdown_memtocore[GLOBAL_ACC_W] = 125056 {8:15632,}
traffic_breakdown_memtocore[INST_ACC_R] = 10200 {136:75,}
maxmrqlatency = 218 
maxdqlatency = 0 
maxmflatency = 956 
averagemflatency = 280 
max_icnt2mem_latency = 723 
max_icnt2sh_latency = 91597 
mrq_lat_table:26303 	2023 	951 	821 	751 	382 	178 	24 	0 	0 	0 	0 	0 	0 	0 	0 	0 	0 	0 	0 	0 	0 	0 	0 	0 	0 	0 	0 	0 	0 	0 	0 	
dq_lat_table:0 	0 	0 	0 	0 	0 	0 	0 	0 	0 	0 	0 	0 	0 	0 	0 	0 	0 	0 	0 	0 	0 	0 	0 	0 	0 	0 	0 	0 	0 	0 	0 	
mf_lat_table:0 	0 	0 	0 	0 	0 	0 	11408 	33467 	2022 	0 	0 	0 	0 	0 	0 	0 	0 	0 	0 	0 	0 	0 	0 	0 	0 	0 	0 	0 	0 	0 	0 	
icnt2mem_lat_table:0 	0 	0 	29035 	5719 	4202 	4138 	2266 	1042 	570 	0 	0 	0 	0 	0 	0 	0 	0 	0 	0 	0 	0 	0 	0 	
icnt2sh_lat_table:0 	0 	0 	12165 	12935 	5456 	702 	7 	0 	0 	0 	0 	720 	1238 	2827 	5934 	4913 	0 	0 	0 	0 	0 	0 	0 	
mf_lat_pw_table:0 	0 	0 	0 	0 	0 	0 	106 	66 	6 	0 	0 	0 	0 	0 	0 	0 	0 	0 	0 	0 	0 	0 	0 	0 	0 	0 	0 	0 	0 	0 	0 	
maximum concurrent accesses to same row:
dram[0]:        32        32        32        32        32        32        32        32        32        32        32        32        32        32        32        32 
dram[1]:        32        32        32        32        32        32        32        32        32        32        32        32        32        32        32        32 
dram[2]:        32        32        32        32        32        32        32        32        32        32        32        32        32        32        32        32 
dram[3]:        32        32        32        32        32        32        32        32        32        32        32        32        32        32        32        32 
dram[4]:        32        32        32        32        32        32        32        32        32        32        32        32        32        32        32        32 
dram[5]:        32        32        32        32        32        32        32        32        32        32        32        32        32        32        32        32 
maximum service time to same row:
dram[0]:      9302      9250      9353      9384     10448     10538     10218     10206     10703     10908     11338     11365     13010     13050      9017      9010 
dram[1]:      9304      9263      9364      9388     10484     10470     10216     10202     10700     11012     11343     11370     13003     13059      9068      9000 
dram[2]:      9308      9198      9380      9390     10475     10522     10232     10216     10774     10980     11366     11370     13033     13214      9090      8895 
dram[3]:      9308      9203      9417      9415     10574     10546     10231     10218     10781      9257     11381     11362     13034     13291      9110      8903 
dram[4]:      9303      9199      9352      9409     10515     10512     10223     10244     10831      9322     11328     11368     13028     13287      9003      8895 
dram[5]:      9287      9217      9401      9504     10554     10584     10222     10267     10785     11109     11328     11364     13028     13290      9010      8916 
average row accesses per activate:
dram[0]: 24.846153 32.000000 32.000000 32.000000 30.000000 30.000000 32.000000 32.000000 26.076923 25.692308 32.000000 32.000000 32.000000 32.000000 32.000000 32.000000 
dram[1]: 29.272728 32.000000 32.000000 32.000000 30.000000 30.000000 32.000000 32.000000 20.875000 25.692308 32.000000 32.000000 32.000000 32.000000 32.000000 32.000000 
dram[2]: 29.181818 32.000000 32.000000 32.000000 30.000000 30.181818 32.000000 32.000000 22.266666 27.750000 32.000000 32.000000 32.000000 32.000000 32.000000 32.000000 
dram[3]: 32.000000 32.000000 32.000000 32.000000 30.000000 30.181818 32.000000 32.000000 25.692308 26.230770 32.000000 32.000000 32.000000 32.000000 32.000000 32.000000 
dram[4]: 32.000000 32.000000 32.000000 32.000000 30.000000 30.181818 32.000000 32.000000 20.875000 20.117647 32.000000 32.000000 32.000000 32.000000 32.000000 32.000000 
dram[5]: 32.000000 32.000000 32.000000 32.000000 30.000000 30.181818 32.000000 32.000000 22.266666 22.799999 32.000000 32.000000 32.000000 32.000000 32.000000 32.000000 
average row locality = 31433/1040 = 30.224039
number of total memory accesses made:
dram[0]:         0         0         0         0         0         0         0         0         0         0         0         0         0         0         0         0 
dram[1]:         0         0         0         0         0         0         0         0         0         0         0         0         0         0         0         0 
dram[2]:         0         0         0         0         0         0         0         0         0         0         0         0         0         0         0         0 
dram[3]:         0         0         0         0         0         0         0         0         0         0         0         0         0         0         0         0 
dram[4]:         0         0         0         0         0         0         0         0         0         0         0         0         0         0         0         0 
dram[5]:         0         0         0         0         0         0         0         0         0         0         0         0         0         0         0         0 
total accesses: 0
min_bank_accesses = 0!
min_chip_accesses = 0!
number of total read accesses:
dram[0]:       323       320       320       320       330       330       352       352       325       324       320       320       320       320       320       320 
dram[1]:       322       320       320       320       330       330       352       352       324       324       320       320       320       320       320       320 
dram[2]:       321       320       320       320       330       332       352       352       324       324       320       320       320       320       320       320 
dram[3]:       320       320       320       320       330       332       352       352       324       324       320       320       320       320       320       320 
dram[4]:       320       320       320       320       330       332       352       352       324       324       320       320       320       320       320       320 
dram[5]:       320       320       320       320       330       332       352       352       324       324       320       320       320       320       320       320 
total reads: 31287
bank skew: 352/320 = 1.10
chip skew: 5216/5214 = 1.00
number of total write accesses:
dram[0]:         0         0         0         0         0         0         0         0        14        10         0         0         0         0         0         0 
dram[1]:         0         0         0         0         0         0         0         0        10        10         0         0         0         0         0         0 
dram[2]:         0         0         0         0         0         0         0         0        10         9         0         0         0         0         0         0 
dram[3]:         0         0         0         0         0         0         0         0        10        17         0         0         0         0         0         0 
dram[4]:         0         0         0         0         0         0         0         0        10        18         0         0         0         0         0         0 
dram[5]:         0         0         0         0         0         0         0         0        10        18         0         0         0         0         0         0 
total reads: 146
min_bank_accesses = 0!
chip skew: 28/19 = 1.47
average mf latency per bank:
dram[0]:        300       290       281       279       283       289       319       325      1074       908       290       296       297       297       305       303
dram[1]:        286       297       281       285       289       295       326       322       974       943       303       298       299       295       303       307
dram[2]:        308       287       300       277       295       288       322       338       914       937       296       304       298       293       312       306
dram[3]:        293       296       283       286       294       284       319       327       941      2359       295       295       300       296       302       316
dram[4]:        303       284       289       277       294       289       330       329       900      1925       295       296       303       295       313       300
dram[5]:        295       297       280       279       290       290       321       331       863      1843       291       303       300       300       308       305
maximum mf latency per bank:
dram[0]:        763       608       434       426       567       737       788       956       951       852       581       556       768       663       668       703
dram[1]:        733       710       475       452       849       932       949       877       918       861       638       575       772       649       757       680
dram[2]:        754       667       621       433       817       590       919       927       947       830       598       693       777       872       712       759
dram[3]:        678       766       496       517       821       572       894       914       920       917       512       547       768       837       631       839
dram[4]:        831       637       506       389       815       553       910       848       847       792       663       557       732       846       813       633
dram[5]:        831       605       452       514       789       544       904       817       837       868       533       578       719       834       831       730
Memory Partition 0: 
Cache L2_bank_000:
MSHR contents

Cache L2_bank_001:
MSHR contents

In Dram Latency Queue (total = 0): 
DRAM[0]: 16 bks, busW=4 BL=8 CL=12, tRRD=2 tCCD=6, tRCD=12 tRAS=28 tRP=12 tRC=40
n_cmd=120909 n_nop=110119 n_act=173 n_pre=157 n_req=5240 n_rd=10432 n_write=28 bw_util=0.173
n_activity=55918 dram_eff=0.3741
bk0: 646a 118980i bk1: 640a 118720i bk2: 640a 118902i bk3: 640a 118697i bk4: 660a 118974i bk5: 660a 118758i bk6: 704a 118694i bk7: 704a 118079i bk8: 650a 118684i bk9: 648a 118646i bk10: 640a 118826i bk11: 640a 118469i bk12: 640a 118742i bk13: 640a 118501i bk14: 640a 119016i bk15: 640a 118809i 
dram_util_bins: 0 0 0 0 0 0 0 0 0 0
dram_eff_bins: 0 0 0 0 0 0 0 0 0 0
mrqq: max=16 avg=0.102093
Memory Partition 1: 
Cache L2_bank_002:
MSHR contents

Cache L2_bank_003:
MSHR contents

In Dram Latency Queue (total = 0): 
DRAM[1]: 16 bks, busW=4 BL=8 CL=12, tRRD=2 tCCD=6, tRCD=12 tRAS=28 tRP=12 tRC=40
n_cmd=120909 n_nop=110125 n_act=174 n_pre=158 n_req=5234 n_rd=10428 n_write=24 bw_util=0.1729
n_activity=56272 dram_eff=0.3715
bk0: 644a 119025i bk1: 640a 118909i bk2: 640a 118995i bk3: 640a 118733i bk4: 660a 119032i bk5: 660a 118731i bk6: 704a 118703i bk7: 704a 118228i bk8: 648a 118667i bk9: 648a 118516i bk10: 640a 118565i bk11: 640a 118299i bk12: 640a 118860i bk13: 640a 118543i bk14: 640a 119045i bk15: 640a 118753i 
dram_util_bins: 0 0 0 0 0 0 0 0 0 0
dram_eff_bins: 0 0 0 0 0 0 0 0 0 0
mrqq: max=16 avg=0.104649
Memory Partition 2: 
Cache L2_bank_004:
MSHR contents

Cache L2_bank_005:
MSHR contents

In Dram Latency Queue (total = 0): 
DRAM[2]: 16 bks, busW=4 BL=8 CL=12, tRRD=2 tCCD=6, tRCD=12 tRAS=28 tRP=12 tRC=40
n_cmd=120909 n_nop=110129 n_act=172 n_pre=156 n_req=5234 n_rd=10430 n_write=22 bw_util=0.1729
n_activity=55610 dram_eff=0.3759
bk0: 642a 119046i bk1: 640a 118726i bk2: 640a 118827i bk3: 640a 118702i bk4: 660a 118944i bk5: 664a 118588i bk6: 704a 118724i bk7: 704a 118158i bk8: 648a 118710i bk9: 648a 118381i bk10: 640a 118551i bk11: 640a 118304i bk12: 640a 118533i bk13: 640a 118656i bk14: 640a 119033i bk15: 640a 118777i 
dram_util_bins: 0 0 0 0 0 0 0 0 0 0
dram_eff_bins: 0 0 0 0 0 0 0 0 0 0
mrqq: max=16 avg=0.163801
Memory Partition 3: 
Cache L2_bank_006:
MSHR contents

Cache L2_bank_007:
MSHR contents

In Dram Latency Queue (total = 0): 
DRAM[3]: 16 bks, busW=4 BL=8 CL=12, tRRD=2 tCCD=6, tRCD=12 tRAS=28 tRP=12 tRC=40
n_cmd=120909 n_nop=110126 n_act=170 n_pre=154 n_req=5241 n_rd=10428 n_write=31 bw_util=0.173
n_activity=55852 dram_eff=0.3745
bk0: 640a 119065i bk1: 640a 118748i bk2: 640a 119016i bk3: 640a 118663i bk4: 660a 118973i bk5: 664a 118771i bk6: 704a 118700i bk7: 704a 118238i bk8: 648a 118780i bk9: 648a 118564i bk10: 640a 118665i bk11: 640a 118286i bk12: 640a 118803i bk13: 640a 118592i bk14: 640a 119063i bk15: 640a 118622i 
dram_util_bins: 0 0 0 0 0 0 0 0 0 0
dram_eff_bins: 0 0 0 0 0 0 0 0 0 0
mrqq: max=16 avg=0.114069
Memory Partition 4: 
Cache L2_bank_008:
MSHR contents

Cache L2_bank_009:
MSHR contents

In Dram Latency Queue (total = 0): 
DRAM[4]: 16 bks, busW=4 BL=8 CL=12, tRRD=2 tCCD=6, tRCD=12 tRAS=28 tRP=12 tRC=40
n_cmd=120909 n_nop=110111 n_act=177 n_pre=161 n_req=5242 n_rd=10428 n_write=32 bw_util=0.173
n_activity=56516 dram_eff=0.3702
bk0: 640a 119060i bk1: 640a 118842i bk2: 640a 118862i bk3: 640a 118854i bk4: 660a 118929i bk5: 664a 118798i bk6: 704a 118718i bk7: 704a 118173i bk8: 648a 118693i bk9: 648a 118420i bk10: 640a 118724i bk11: 640a 118360i bk12: 640a 118526i bk13: 640a 118541i bk14: 640a 118989i bk15: 640a 118895i 
dram_util_bins: 0 0 0 0 0 0 0 0 0 0
dram_eff_bins: 0 0 0 0 0 0 0 0 0 0
mrqq: max=16 avg=0.130123
Memory Partition 5: 
Cache L2_bank_010:
MSHR contents

Cache L2_bank_011:
MSHR contents

In Dram Latency Queue (total = 0): 
DRAM[5]: 16 bks, busW=4 BL=8 CL=12, tRRD=2 tCCD=6, tRCD=12 tRAS=28 tRP=12 tRC=40
n_cmd=120909 n_nop=110117 n_act=174 n_pre=158 n_req=5242 n_rd=10428 n_write=32 bw_util=0.173
n_activity=56180 dram_eff=0.3724
bk0: 640a 119135i bk1: 640a 118808i bk2: 640a 119072i bk3: 640a 118799i bk4: 660a 118996i bk5: 664a 118699i bk6: 704a 118591i bk7: 704a 118247i bk8: 648a 118768i bk9: 648a 118410i bk10: 640a 118697i bk11: 640a 118233i bk12: 640a 118634i bk13: 640a 118575i bk14: 640a 119017i bk15: 640a 118780i 
dram_util_bins: 0 0 0 0 0 0 0 0 0 0
dram_eff_bins: 0 0 0 0 0 0 0 0 0 0
mrqq: max=16 avg=0.124962

========= L2 cache stats =========
L2_cache_bank[0]: Access = 3945, Miss = 2610, Miss_rate = 0.662, Pending_hits = 18, Reservation_fails = 662
L2_cache_bank[1]: Access = 3628, Miss = 2606, Miss_rate = 0.718, Pending_hits = 6, Reservation_fails = 276
L2_cache_bank[2]: Access = 3658, Miss = 2608, Miss_rate = 0.713, Pending_hits = 10, Reservation_fails = 386
L2_cache_bank[3]: Access = 3628, Miss = 2606, Miss_rate = 0.718, Pending_hits = 6, Reservation_fails = 299
L2_cache_bank[4]: Access = 3643, Miss = 2607, Miss_rate = 0.716, Pending_hits = 7, Reservation_fails = 345
L2_cache_bank[5]: Access = 3630, Miss = 2608, Miss_rate = 0.718, Pending_hits = 6, Reservation_fails = 370
L2_cache_bank[6]: Access = 3628, Miss = 2606, Miss_rate = 0.718, Pending_hits = 6, Reservation_fails = 272
L2_cache_bank[7]: Access = 4652, Miss = 2608, Miss_rate = 0.561, Pending_hits = 11, Reservation_fails = 443
L2_cache_bank[8]: Access = 3628, Miss = 2606, Miss_rate = 0.718, Pending_hits = 6, Reservation_fails = 359
L2_cache_bank[9]: Access = 4652, Miss = 2608, Miss_rate = 0.561, Pending_hits = 12, Reservation_fails = 564
L2_cache_bank[10]: Access = 3628, Miss = 2606, Miss_rate = 0.718, Pending_hits = 6, Reservation_fails = 322
L2_cache_bank[11]: Access = 4652, Miss = 2608, Miss_rate = 0.561, Pending_hits = 12, Reservation_fails = 563
L2_total_cache_accesses = 46972
L2_total_cache_misses = 31287
L2_total_cache_miss_rate = 0.6661
L2_total_cache_pending_hits = 106
L2_total_cache_reservation_fails = 4861
L2_total_cache_breakdown:
	L2_cache_stats_breakdown[GLOBAL_ACC_R][MISS] = 31250
	L2_cache_stats_breakdown[GLOBAL_ACC_R][RESERVATION_FAIL] = 797
	L2_cache_stats_breakdown[CONST_ACC_R][HIT] = 11
	L2_cache_stats_breakdown[CONST_ACC_R][HIT_RESERVED] = 3
	L2_cache_stats_breakdown[CONST_ACC_R][MISS] = 1
	L2_cache_stats_breakdown[CONST_ACC_R][RESERVATION_FAIL] = 102
	L2_cache_stats_breakdown[GLOBAL_ACC_W][HIT] = 15509
	L2_cache_stats_breakdown[GLOBAL_ACC_W][HIT_RESERVED] = 92
	L2_cache_stats_breakdown[GLOBAL_ACC_W][MISS] = 31
	L2_cache_stats_breakdown[GLOBAL_ACC_W][RESERVATION_FAIL] = 3610
	L2_cache_stats_breakdown[INST_ACC_R][HIT] = 59
	L2_cache_stats_breakdown[INST_ACC_R][HIT_RESERVED] = 11
	L2_cache_stats_breakdown[INST_ACC_R][MISS] = 5
	L2_cache_stats_breakdown[INST_ACC_R][RESERVATION_FAIL] = 352
L2_cache_data_port_util = 0.014
L2_cache_fill_port_util = 0.114

icnt_total_pkts_mem_to_simt=172302
icnt_total_pkts_simt_to_mem=62604
LD_mem_lat_dist  0 0 0 0 0 0 0 0 0 0 0 0 0 0 0 0 0 0 0 0 0 0 0 0 0 0 0
ST_mem_lat_dist  0 0 0 0 0 0 0 0 0 0 0 0 0 0 0 0 0 0 0 0 0 0 0 0 0 0 0
----------------------------Interconnect-DETAILS--------------------------------
Class 0:
Packet latency average = 26.0896
	minimum = 6
	maximum = 429
Network latency average = 18.4082
	minimum = 6
	maximum = 289
Slowest packet = 14
Flit latency average = 16.4528
	minimum = 6
	maximum = 288
Slowest flit = 23355
Fragmentation average = 0.0104956
	minimum = 0
	maximum = 151
Injected packet rate average = 0.0379856
	minimum = 0.0336034 (at node 7)
	maximum = 0.0507871 (at node 22)
Accepted packet rate average = 0.0379856
	minimum = 0.0336034 (at node 7)
	maximum = 0.0507871 (at node 22)
Injected flit rate average = 0.0949827
	minimum = 0.0447826 (at node 7)
	maximum = 0.164501 (at node 22)
Accepted flit rate average= 0.0949827
	minimum = 0.0507871 (at node 16)
	maximum = 0.127121 (at node 1)
Injected packet length average = 2.50049
Accepted packet length average = 2.50049
Total in-flight flits = 0 (0 measured)
====== Overall Traffic Statistics ======
====== Traffic class 0 ======
Packet latency average = 26.0896 (1 samples)
	minimum = 6 (1 samples)
	maximum = 429 (1 samples)
Network latency average = 18.4082 (1 samples)
	minimum = 6 (1 samples)
	maximum = 289 (1 samples)
Flit latency average = 16.4528 (1 samples)
	minimum = 6 (1 samples)
	maximum = 288 (1 samples)
Fragmentation average = 0.0104956 (1 samples)
	minimum = 0 (1 samples)
	maximum = 151 (1 samples)
Injected packet rate average = 0.0379856 (1 samples)
	minimum = 0.0336034 (1 samples)
	maximum = 0.0507871 (1 samples)
Accepted packet rate average = 0.0379856 (1 samples)
	minimum = 0.0336034 (1 samples)
	maximum = 0.0507871 (1 samples)
Injected flit rate average = 0.0949827 (1 samples)
	minimum = 0.0447826 (1 samples)
	maximum = 0.164501 (1 samples)
Accepted flit rate average = 0.0949827 (1 samples)
	minimum = 0.0507871 (1 samples)
	maximum = 0.127121 (1 samples)
Injected packet size average = 2.50049 (1 samples)
Accepted packet size average = 2.50049 (1 samples)
Hops average = 1 (1 samples)
----------------------------END-of-Interconnect-DETAILS-------------------------


gpgpu_simulation_time = 0 days, 0 hrs, 2 min, 58 sec (178 sec)
gpgpu_simulation_rate = 356852 (inst/sec)
gpgpu_simulation_rate = 514 (cycle/sec)
177.928207 s
Copying data from device to host...0.000444 s
Verifying results...TEST FAILED, cpu = 494979.375, gpu = 494223.719

