

        *** GPGPU-Sim Simulator Version 3.2.2  [build 0] ***


GPGPU-Sim PTX: simulation mode 0 (can change with PTX_SIM_MODE_FUNC environment variable:
               1=functional simulation only, 0=detailed performance simulator)
GPGPU-Sim: Configuration options:

-network_mode                           1 # Interconnection network mode
-inter_config_file   config_fermi_islip.icnt # Interconnection network config file
-gpgpu_ptx_use_cuobjdump                    1 # Use cuobjdump to extract ptx and sass from binaries
-gpgpu_experimental_lib_support                    0 # Try to extract code from cuda libraries [Broken because of unknown cudaGetExportTable]
-gpgpu_ptx_convert_to_ptxplus                    0 # Convert SASS (native ISA) to ptxplus and run ptxplus
-gpgpu_ptx_force_max_capability                   20 # Force maximum compute capability
-gpgpu_ptx_inst_debug_to_file                    0 # Dump executed instructions' debug information to file
-gpgpu_ptx_inst_debug_file       inst_debug.txt # Executed instructions' debug output file
-gpgpu_ptx_inst_debug_thread_uid                    1 # Thread UID for executed instructions' debug output
-gpgpu_simd_model                       1 # 1 = post-dominator
-gpgpu_shader_core_pipeline              1536:32 # shader core pipeline config, i.e., {<nthread>:<warpsize>}
-gpgpu_tex_cache:l1  4:128:24,L:R:m:N:L,F:128:4,128:2 # per-shader L1 texture cache  (READ-ONLY) config  {<nsets>:<bsize>:<assoc>,<rep>:<wr>:<alloc>:<wr_alloc>,<mshr>:<N>:<merge>,<mq>:<rf>}
-gpgpu_const_cache:l1 64:64:2,L:R:f:N:L,A:2:32,4 # per-shader L1 constant memory cache  (READ-ONLY) config  {<nsets>:<bsize>:<assoc>,<rep>:<wr>:<alloc>:<wr_alloc>,<mshr>:<N>:<merge>,<mq>} 
-gpgpu_cache:il1     4:128:4,L:R:f:N:L,A:2:32,4 # shader L1 instruction cache config  {<nsets>:<bsize>:<assoc>,<rep>:<wr>:<alloc>:<wr_alloc>,<mshr>:<N>:<merge>,<mq>} 
-gpgpu_cache:dl1     32:128:4,L:L:m:N:H,A:32:8,8 # per-shader L1 data cache config  {<nsets>:<bsize>:<assoc>,<rep>:<wr>:<alloc>:<wr_alloc>,<mshr>:<N>:<merge>,<mq> | none}
-gpgpu_cache:dl1PrefL1                 none # per-shader L1 data cache config  {<nsets>:<bsize>:<assoc>,<rep>:<wr>:<alloc>:<wr_alloc>,<mshr>:<N>:<merge>,<mq> | none}
-gpgpu_cache:dl1PreShared                 none # per-shader L1 data cache config  {<nsets>:<bsize>:<assoc>,<rep>:<wr>:<alloc>:<wr_alloc>,<mshr>:<N>:<merge>,<mq> | none}
-gmem_skip_L1D                          0 # global memory access skip L1D cache (implements -Xptxas -dlcm=cg, default=no skip)
-gpgpu_perfect_mem                      0 # enable perfect memory mode (no cache miss)
-n_regfile_gating_group                    4 # group of lanes that should be read/written together)
-gpgpu_clock_gated_reg_file                    0 # enable clock gated reg file for power calculations
-gpgpu_clock_gated_lanes                    0 # enable clock gated lanes for power calculations
-gpgpu_shader_registers                32768 # Number of registers per shader core. Limits number of concurrent CTAs. (default 8192)
-gpgpu_shader_cta                       8 # Maximum number of concurrent CTAs in shader (default 8)
-gpgpu_num_cta_barriers                   16 # Maximum number of named barriers per CTA (default 16)
-gpgpu_n_clusters                      15 # number of processing clusters
-gpgpu_n_cores_per_cluster                    1 # number of simd cores per cluster
-gpgpu_n_cluster_ejection_buffer_size                    8 # number of packets in ejection buffer
-gpgpu_n_ldst_response_buffer_size                    2 # number of response packets in ld/st unit ejection buffer
-gpgpu_shmem_size                   16384 # Size of shared memory per shader core (default 16kB)
-gpgpu_shmem_size                   49152 # Size of shared memory per shader core (default 16kB)
-gpgpu_shmem_size_PrefL1                16384 # Size of shared memory per shader core (default 16kB)
-gpgpu_shmem_size_PrefShared                16384 # Size of shared memory per shader core (default 16kB)
-gpgpu_shmem_num_banks                   32 # Number of banks in the shared memory in each shader core (default 16)
-gpgpu_shmem_limited_broadcast                    0 # Limit shared memory to do one broadcast per cycle (default on)
-gpgpu_shmem_warp_parts                    1 # Number of portions a warp is divided into for shared memory bank conflict check 
-gpgpu_warpdistro_shader                   -1 # Specify which shader core to collect the warp size distribution from
-gpgpu_warp_issue_shader                    0 # Specify which shader core to collect the warp issue distribution from
-gpgpu_local_mem_map                    1 # Mapping from local memory space address to simulated GPU physical address space (default = enabled)
-gpgpu_num_reg_banks                   16 # Number of register banks (default = 8)
-gpgpu_reg_bank_use_warp_id                    0 # Use warp ID in mapping registers to banks (default = off)
-gpgpu_operand_collector_num_units_sp                    6 # number of collector units (default = 4)
-gpgpu_operand_collector_num_units_sfu                    8 # number of collector units (default = 4)
-gpgpu_operand_collector_num_units_mem                    2 # number of collector units (default = 2)
-gpgpu_operand_collector_num_units_gen                    0 # number of collector units (default = 0)
-gpgpu_operand_collector_num_in_ports_sp                    2 # number of collector unit in ports (default = 1)
-gpgpu_operand_collector_num_in_ports_sfu                    1 # number of collector unit in ports (default = 1)
-gpgpu_operand_collector_num_in_ports_mem                    1 # number of collector unit in ports (default = 1)
-gpgpu_operand_collector_num_in_ports_gen                    0 # number of collector unit in ports (default = 0)
-gpgpu_operand_collector_num_out_ports_sp                    2 # number of collector unit in ports (default = 1)
-gpgpu_operand_collector_num_out_ports_sfu                    1 # number of collector unit in ports (default = 1)
-gpgpu_operand_collector_num_out_ports_mem                    1 # number of collector unit in ports (default = 1)
-gpgpu_operand_collector_num_out_ports_gen                    0 # number of collector unit in ports (default = 0)
-gpgpu_coalesce_arch                   13 # Coalescing arch (default = 13, anything else is off for now)
-gpgpu_num_sched_per_core                    2 # Number of warp schedulers per core
-gpgpu_max_insn_issue_per_warp                    1 # Max number of instructions that can be issued per warp in one cycle by scheduler
-gpgpu_simt_core_sim_order                    1 # Select the simulation order of cores in a cluster (0=Fix, 1=Round-Robin)
-gpgpu_pipeline_widths        2,1,1,2,1,1,2 # Pipeline widths ID_OC_SP,ID_OC_SFU,ID_OC_MEM,OC_EX_SP,OC_EX_SFU,OC_EX_MEM,EX_WB
-gpgpu_num_sp_units                     2 # Number of SP units (default=1)
-gpgpu_num_sfu_units                    1 # Number of SF units (default=1)
-gpgpu_num_mem_units                    1 # Number if ldst units (default=1) WARNING: not hooked up to anything
-gpgpu_scheduler                      gto # Scheduler configuration: < lrr | gto | two_level_active > If two_level_active:<num_active_warps>:<inner_prioritization>:<outer_prioritization>For complete list of prioritization values see shader.h enum scheduler_prioritization_typeDefault: gto
-gpgpu_dram_scheduler                    1 # 0 = fifo, 1 = FR-FCFS (defaul)
-gpgpu_dram_partition_queues              8:8:8:8 # i2$:$2d:d2$:$2i
-l2_ideal                               0 # Use a ideal L2 cache that always hit
-gpgpu_cache:dl2     64:128:8,L:B:m:W:L,A:32:4,4:0,32 # unified banked L2 data cache config  {<nsets>:<bsize>:<assoc>,<rep>:<wr>:<alloc>:<wr_alloc>,<mshr>:<N>:<merge>,<mq>}
-gpgpu_cache:dl2_texture_only                    0 # L2 cache used for texture only
-gpgpu_n_mem                            6 # number of memory modules (e.g. memory controllers) in gpu
-gpgpu_n_sub_partition_per_mchannel                    2 # number of memory subpartition in each memory module
-gpgpu_n_mem_per_ctrlr                    2 # number of memory chips per memory controller
-gpgpu_memlatency_stat                   14 # track and display latency statistics 0x2 enables MC, 0x4 enables queue logs
-gpgpu_frfcfs_dram_sched_queue_size                   16 # 0 = unlimited (default); # entries per chip
-gpgpu_dram_return_queue_size                  116 # 0 = unlimited (default); # entries per chip
-gpgpu_dram_buswidth                    4 # default = 4 bytes (8 bytes per cycle at DDR)
-gpgpu_dram_burst_length                    8 # Burst length of each DRAM request (default = 4 data bus cycle)
-dram_data_command_freq_ratio                    4 # Frequency ratio between DRAM data bus and command bus (default = 2 times, i.e. DDR)
-gpgpu_dram_timing_opt nbk=16:CCD=2:RRD=6:RCD=12:RAS=28:RP=12:RC=40: CL=12:WL=4:CDLR=5:WR=12:nbkgrp=4:CCDL=3:RTPL=2 # DRAM timing parameters = {nbk:tCCD:tRRD:tRCD:tRAS:tRP:tRC:CL:WL:tCDLR:tWR:nbkgrp:tCCDL:tRTPL}
-rop_latency                          120 # ROP queue latency (default 85)
-dram_latency                         100 # DRAM latency (default 30)
-gpgpu_mem_addr_mapping dramid@8;00000000.00000000.00000000.00000000.0000RRRR.RRRRRRRR.BBBCCCCB.CCSSSSSS # mapping memory address to dram model {dramid@<start bit>;<memory address map>}
-gpgpu_mem_addr_test                    0 # run sweep test to check address mapping for aliased address
-gpgpu_mem_address_mask                    1 # 0 = old addressing mask, 1 = new addressing mask, 2 = new add. mask + flipped bank sel and chip sel bits
-gpuwattch_xml_file  gpuwattch_gtx480.xml # GPUWattch XML file
-power_simulation_enabled                    1 # Turn on power simulator (1=On, 0=Off)
-power_per_cycle_dump                    0 # Dump detailed power output each cycle
-power_trace_enabled                    0 # produce a file for the power trace (1=On, 0=Off)
-power_trace_zlevel                     6 # Compression level of the power trace output log (0=no comp, 9=highest)
-steady_power_levels_enabled                    0 # produce a file for the steady power levels (1=On, 0=Off)
-steady_state_definition                  8:4 # allowed deviation:number of samples
-gpgpu_max_cycle                        0 # terminates gpu simulation early (0 = no limit)
-gpgpu_max_insn                         0 # terminates gpu simulation early (0 = no limit)
-gpgpu_max_cta                          0 # terminates gpu simulation early (0 = no limit)
-gpgpu_runtime_stat                   500 # display runtime statistics such as dram utilization {<freq>:<flag>}
-liveness_message_freq                    1 # Minimum number of seconds between simulation liveness messages (0 = always print)
-gpgpu_flush_l1_cache                    0 # Flush L1 cache at the end of each kernel call
-gpgpu_flush_l2_cache                    0 # Flush L2 cache at the end of each kernel call
-gpgpu_deadlock_detect                    1 # Stop the simulation at deadlock (1=on (default), 0=off)
-gpgpu_ptx_instruction_classification                    0 # if enabled will classify ptx instruction types per kernel (Max 255 kernels now)
-gpgpu_ptx_sim_mode                     0 # Select between Performance (default) or Functional simulation (1)
-gpgpu_clock_domains 700.0:700.0:700.0:924.0 # Clock Domain Frequencies in MhZ {<Core Clock>:<ICNT Clock>:<L2 Clock>:<DRAM Clock>}
-gpgpu_max_concurrent_kernel                    8 # maximum kernels that can run concurrently on GPU
-gpgpu_cflog_interval                    0 # Interval between each snapshot in control flow logger
-visualizer_enabled                     0 # Turn on visualizer output (1=On, 0=Off)
-visualizer_outputfile                 NULL # Specifies the output log file for visualizer
-visualizer_zlevel                      6 # Compression level of the visualizer output log (0=no comp, 9=highest)
-trace_enabled                          0 # Turn on traces
-trace_components                    none # comma seperated list of traces to enable. Complete list found in trace_streams.tup. Default none
-trace_sampling_core                    0 # The core which is printed using CORE_DPRINTF. Default 0
-trace_sampling_memory_partition                   -1 # The memory partition which is printed using MEMPART_DPRINTF. Default -1 (i.e. all)
-enable_ptx_file_line_stats                    1 # Turn on PTX source line statistic profiling. (1 = On)
-ptx_line_stats_filename gpgpu_inst_stats.txt # Output file for PTX source line statistics.
-save_embedded_ptx                      0 # saves ptx files embedded in binary as <n>.ptx
-keep                                   0 # keep intermediate files created by GPGPU-Sim when interfacing with external programs
-gpgpu_ptx_save_converted_ptxplus                    0 # Saved converted ptxplus to a file
-ptx_opcode_latency_int         4,13,4,5,145 # Opcode latencies for integers <ADD,MAX,MUL,MAD,DIV>Default 1,1,19,25,145
-ptx_opcode_latency_fp          4,13,4,5,39 # Opcode latencies for single precision floating points <ADD,MAX,MUL,MAD,DIV>Default 1,1,1,1,30
-ptx_opcode_latency_dp         8,19,8,8,330 # Opcode latencies for double precision floating points <ADD,MAX,MUL,MAD,DIV>Default 8,8,8,8,335
-ptx_opcode_initiation_int            1,2,2,1,8 # Opcode initiation intervals for integers <ADD,MAX,MUL,MAD,DIV>Default 1,1,4,4,32
-ptx_opcode_initiation_fp            1,2,1,1,4 # Opcode initiation intervals for single precision floating points <ADD,MAX,MUL,MAD,DIV>Default 1,1,1,1,5
-ptx_opcode_initiation_dp         8,16,8,8,130 # Opcode initiation intervals for double precision floating points <ADD,MAX,MUL,MAD,DIV>Default 8,8,8,8,130
DRAM Timing Options:
nbk                                    16 # number of banks
CCD                                     2 # column to column delay
RRD                                     6 # minimal delay between activation of rows in different banks
RCD                                    12 # row to column delay
RAS                                    28 # time needed to activate row
RP                                     12 # time needed to precharge (deactivate) row
RC                                     40 # row cycle time
CDLR                                    5 # switching from write to read (changes tWTR)
WR                                     12 # last data-in to row precharge
CL                                     12 # CAS latency
WL                                      4 # Write latency
nbkgrp                                  4 # number of bank groups
CCDL                                    3 # column to column delay between accesses to different bank groups
RTPL                                    2 # read to precharge delay between accesses to different bank groups
Total number of memory sub partition = 12
addr_dec_mask[CHIP]  = 0000000000000000 	high:64 low:0
addr_dec_mask[BK]    = 000000000000e100 	high:16 low:8
addr_dec_mask[ROW]   = 000000000fff0000 	high:28 low:16
addr_dec_mask[COL]   = 0000000000001eff 	high:13 low:0
addr_dec_mask[BURST] = 000000000000003f 	high:6 low:0
sub_partition_id_mask = 0000000000000100
GPGPU-Sim uArch: clock freqs: 700000000.000000:700000000.000000:700000000.000000:924000000.000000
GPGPU-Sim uArch: clock periods: 0.00000000142857142857:0.00000000142857142857:0.00000000142857142857:0.00000000108225108225
*** Initializing Memory Statistics ***
GPGPU-Sim uArch: interconnect node map (shaderID+MemID to icntID)
GPGPU-Sim uArch: Memory nodes ID start from index: 15
GPGPU-Sim uArch:    0   1   2   3   4
GPGPU-Sim uArch:    5   6   7   8   9
GPGPU-Sim uArch:   10  11  12  13  14
GPGPU-Sim uArch:   15  16  17  18  19
GPGPU-Sim uArch:   20  21  22  23  24
GPGPU-Sim uArch:   25  26
GPGPU-Sim uArch: interconnect node reverse map (icntID to shaderID+MemID)
GPGPU-Sim uArch: Memory nodes start from ID: 15
GPGPU-Sim uArch:    0   1   2   3   4
GPGPU-Sim uArch:    5   6   7   8   9
GPGPU-Sim uArch:   10  11  12  13  14
GPGPU-Sim uArch:   15  16  17  18  19
GPGPU-Sim uArch:   20  21  22  23  24
GPGPU-Sim uArch:   25  26
125c6236774d33f1a7cb35fc54b69f42  /root/CS217_GPU/Lab1/reduction
GPGPU-Sim uArch: performance model initialization complete.
GPGPU-Sim PTX: __cudaRegisterFatBinary, fat_cubin_handle = 1, filename=main.cu
self exe links to: /root/CS217_GPU/Lab1/reduction
Running md5sum using "md5sum /root/CS217_GPU/Lab1/reduction "
Running cuobjdump using "$CUDA_INSTALL_PATH/bin/cuobjdump -ptx -elf -sass /root/CS217_GPU/Lab1/reduction > _cuobjdump_complete_output_R3ZdNo"
Parsing file _cuobjdump_complete_output_R3ZdNo
######### cuobjdump parser ########
## Adding new section ELF
Adding arch: sm_10
Adding identifier: main.cu
## Adding new section PTX
Adding ptx filename: _cuobjdump_1.ptx
Adding arch: sm_10
Adding identifier: main.cu
## Adding new section ELF
Adding arch: sm_10
Adding identifier: support.cu
## Adding new section PTX
Adding ptx filename: _cuobjdump_2.ptx
Adding arch: sm_10
Adding identifier: support.cu
Done parsing!!!
GPGPU-Sim PTX: __cudaRegisterFunction _Z9reductionPfS_j : hostFun 0x0x400e40, fat_cubin_handle = 1
GPGPU-Sim PTX: allocating shared region for "__cuda___cuda_local_var_16314_59_non_const_partialSumVector20" from 0x0 to 0x1000 (shared memory space)
GPGPU-Sim PTX: instruction assembly for function '_Z9reductionPfS_j'...   done.
GPGPU-Sim PTX: finding reconvergence points for '_Z9reductionPfS_j'...
GPGPU-Sim PTX: Finding dominators for '_Z9reductionPfS_j'...
GPGPU-Sim PTX: Finding immediate dominators for '_Z9reductionPfS_j'...
GPGPU-Sim PTX: Finding postdominators for '_Z9reductionPfS_j'...
GPGPU-Sim PTX: Finding immediate postdominators for '_Z9reductionPfS_j'...
GPGPU-Sim PTX: pre-decoding instructions for '_Z9reductionPfS_j'...
GPGPU-Sim PTX: reconvergence points for _Z9reductionPfS_j...
GPGPU-Sim PTX:  1 (potential) branch divergence @  PC=0x060 (_1.ptx:73) @%p1 bra $Lt_0_3842;
GPGPU-Sim PTX:    immediate post dominator      @  PC=0x0b0 (_1.ptx:87) add.u32 %r8, %r5, %r1;
GPGPU-Sim PTX:  2 (potential) branch divergence @  PC=0x098 (_1.ptx:81) bra.uni $Lt_0_3586;
GPGPU-Sim PTX:    immediate post dominator      @  PC=0x0b0 (_1.ptx:87) add.u32 %r8, %r5, %r1;
GPGPU-Sim PTX:  3 (potential) branch divergence @  PC=0x0f0 (_1.ptx:97) @%p2 bra $Lt_0_4354;
GPGPU-Sim PTX:    immediate post dominator      @  PC=0x140 (_1.ptx:111) mov.u32 %r11, 1;
GPGPU-Sim PTX:  4 (potential) branch divergence @  PC=0x128 (_1.ptx:105) bra.uni $Lt_0_4098;
GPGPU-Sim PTX:    immediate post dominator      @  PC=0x140 (_1.ptx:111) mov.u32 %r11, 1;
GPGPU-Sim PTX:  5 (potential) branch divergence @  PC=0x150 (_1.ptx:113) @%p3 bra $Lt_0_4610;
GPGPU-Sim PTX:    immediate post dominator      @  PC=0x200 (_1.ptx:143) ld.shared.f32 %f8, [__cuda___cuda_local_var_16314_59_non_const_partialSumVector20+0];
GPGPU-Sim PTX:  6 (potential) branch divergence @  PC=0x180 (_1.ptx:122) @%p4 bra $Lt_0_5378;
GPGPU-Sim PTX:    immediate post dominator      @  PC=0x1e8 (_1.ptx:138) mul.lo.u32 %r12, %r12, 2;
GPGPU-Sim PTX:  7 (potential) branch divergence @  PC=0x1f8 (_1.ptx:140) @%p5 bra $Lt_0_5122;
GPGPU-Sim PTX:    immediate post dominator      @  PC=0x200 (_1.ptx:143) ld.shared.f32 %f8, [__cuda___cuda_local_var_16314_59_non_const_partialSumVector20+0];
GPGPU-Sim PTX: ... end of reconvergence points for _Z9reductionPfS_j
GPGPU-Sim PTX: ... done pre-decoding instructions for '_Z9reductionPfS_j'.
GPGPU-Sim PTX: finished parsing EMBEDDED .ptx file _1.ptx
Adding _cuobjdump_1.ptx with cubin handle 1
GPGPU-Sim PTX: extracting embedded .ptx to temporary file "_ptx_gekCE9"
Running: cat _ptx_gekCE9 | sed 's/.version 1.5/.version 1.4/' | sed 's/, texmode_independent//' | sed 's/\(\.extern \.const\[1\] .b8 \w\+\)\[\]/\1\[1\]/' | sed 's/const\[.\]/const\[0\]/g' > _ptx2_HK21vU
GPGPU-Sim PTX: generating ptxinfo using "$CUDA_INSTALL_PATH/bin/ptxas --gpu-name=sm_20 -v _ptx2_HK21vU --output-file  /dev/null 2> _ptx_gekCE9info"
GPGPU-Sim PTX: Kernel '_Z9reductionPfS_j' : regs=10, lmem=0, smem=4096, cmem=52
GPGPU-Sim PTX: removing ptxinfo using "rm -f _ptx_gekCE9 _ptx2_HK21vU _ptx_gekCE9info"
GPGPU-Sim PTX: loading globals with explicit initializers... 
GPGPU-Sim PTX: finished loading globals (0 bytes total).
GPGPU-Sim PTX: loading constants with explicit initializers...  done.
GPGPU-Sim PTX: __cudaRegisterFatBinary, fat_cubin_handle = 2, filename=support.cu

Setting up the problem...0.026094 s
    Input size = 1000000
Allocating device variables...0.000020 s
Copying data from host to device...0.112528 s
Launching kernel...
GPGPU-Sim PTX: cudaLaunch for 0x0x400e40 (mode=performance simulation) on stream 0
GPGPU-Sim PTX: pushing kernel '_Z9reductionPfS_j' to stream 0, gridDim= (977,1,1) blockDim = (512,1,1) 
kernel '_Z9reductionPfS_j' transfer to GPU hardware scheduler
GPGPU-Sim uArch: Shader 1 bind to kernel 1 '_Z9reductionPfS_j'
GPGPU-Sim uArch: CTA/core = 3, limited by: threads
GPGPU-Sim uArch: core:  1, cta: 0 initialized @(1,0)
GPGPU-Sim uArch: Shader 2 bind to kernel 1 '_Z9reductionPfS_j'
GPGPU-Sim uArch: core:  2, cta: 0 initialized @(1,0)
GPGPU-Sim uArch: Shader 3 bind to kernel 1 '_Z9reductionPfS_j'
GPGPU-Sim uArch: core:  3, cta: 0 initialized @(1,0)
GPGPU-Sim uArch: Shader 4 bind to kernel 1 '_Z9reductionPfS_j'
GPGPU-Sim uArch: core:  4, cta: 0 initialized @(1,0)
GPGPU-Sim uArch: Shader 5 bind to kernel 1 '_Z9reductionPfS_j'
GPGPU-Sim uArch: core:  5, cta: 0 initialized @(1,0)
GPGPU-Sim uArch: Shader 6 bind to kernel 1 '_Z9reductionPfS_j'
GPGPU-Sim uArch: core:  6, cta: 0 initialized @(1,0)
GPGPU-Sim uArch: Shader 7 bind to kernel 1 '_Z9reductionPfS_j'
GPGPU-Sim uArch: core:  7, cta: 0 initialized @(1,0)
GPGPU-Sim uArch: Shader 8 bind to kernel 1 '_Z9reductionPfS_j'
GPGPU-Sim uArch: core:  8, cta: 0 initialized @(1,0)
GPGPU-Sim uArch: Shader 9 bind to kernel 1 '_Z9reductionPfS_j'
GPGPU-Sim uArch: core:  9, cta: 0 initialized @(1,0)
GPGPU-Sim uArch: Shader 10 bind to kernel 1 '_Z9reductionPfS_j'
GPGPU-Sim uArch: core: 10, cta: 0 initialized @(1,0)
GPGPU-Sim uArch: Shader 11 bind to kernel 1 '_Z9reductionPfS_j'
GPGPU-Sim uArch: core: 11, cta: 0 initialized @(1,0)
GPGPU-Sim uArch: Shader 12 bind to kernel 1 '_Z9reductionPfS_j'
GPGPU-Sim uArch: core: 12, cta: 0 initialized @(1,0)
GPGPU-Sim uArch: Shader 13 bind to kernel 1 '_Z9reductionPfS_j'
GPGPU-Sim uArch: core: 13, cta: 0 initialized @(1,0)
GPGPU-Sim uArch: Shader 14 bind to kernel 1 '_Z9reductionPfS_j'
GPGPU-Sim uArch: core: 14, cta: 0 initialized @(1,0)
GPGPU-Sim uArch: Shader 0 bind to kernel 1 '_Z9reductionPfS_j'
GPGPU-Sim uArch: core:  0, cta: 0 initialized @(1,0)
GPGPU-Sim uArch: core:  1, cta: 1 initialized @(2,0)
GPGPU-Sim uArch: core:  2, cta: 1 initialized @(2,0)
GPGPU-Sim uArch: core:  3, cta: 1 initialized @(2,0)
GPGPU-Sim uArch: core:  4, cta: 1 initialized @(2,0)
GPGPU-Sim uArch: core:  5, cta: 1 initialized @(2,0)
GPGPU-Sim uArch: core:  6, cta: 1 initialized @(2,0)
GPGPU-Sim uArch: core:  7, cta: 1 initialized @(2,0)
GPGPU-Sim uArch: core:  8, cta: 1 initialized @(2,0)
GPGPU-Sim uArch: core:  9, cta: 1 initialized @(2,0)
GPGPU-Sim uArch: core: 10, cta: 1 initialized @(2,0)
GPGPU-Sim uArch: core: 11, cta: 1 initialized @(2,0)
GPGPU-Sim uArch: core: 12, cta: 1 initialized @(2,0)
GPGPU-Sim uArch: core: 13, cta: 1 initialized @(2,0)
GPGPU-Sim uArch: core: 14, cta: 1 initialized @(2,0)
GPGPU-Sim uArch: core:  0, cta: 1 initialized @(2,0)
GPGPU-Sim uArch: core:  1, cta: 2 initialized @(3,0)
GPGPU-Sim uArch: core:  2, cta: 2 initialized @(3,0)
GPGPU-Sim uArch: core:  3, cta: 2 initialized @(3,0)
GPGPU-Sim uArch: core:  4, cta: 2 initialized @(3,0)
GPGPU-Sim uArch: core:  5, cta: 2 initialized @(3,0)
GPGPU-Sim uArch: core:  6, cta: 2 initialized @(3,0)
GPGPU-Sim uArch: core:  7, cta: 2 initialized @(3,0)
GPGPU-Sim uArch: core:  8, cta: 2 initialized @(3,0)
GPGPU-Sim uArch: core:  9, cta: 2 initialized @(3,0)
GPGPU-Sim uArch: core: 10, cta: 2 initialized @(3,0)
GPGPU-Sim uArch: core: 11, cta: 2 initialized @(3,0)
GPGPU-Sim uArch: core: 12, cta: 2 initialized @(3,0)
GPGPU-Sim uArch: core: 13, cta: 2 initialized @(3,0)
GPGPU-Sim uArch: core: 14, cta: 2 initialized @(3,0)
GPGPU-Sim uArch: core:  0, cta: 2 initialized @(3,0)
GPGPU-Sim PTX: 100000 instructions simulated : ctaid=(15,0,0) tid=(191,0,0)
GPGPU-Sim uArch: cycles simulated: 500  inst.: 134016 (ipc=268.0) sim_rate=134016 (inst/sec) elapsed = 0:0:00:01 / Tue Jan 29 20:58:28 2019
GPGPU-Sim PTX: 200000 instructions simulated : ctaid=(24,0,0) tid=(383,0,0)
GPGPU-Sim PTX: 300000 instructions simulated : ctaid=(10,0,0) tid=(383,0,0)
GPGPU-Sim PTX: 400000 instructions simulated : ctaid=(42,0,0) tid=(287,0,0)
GPGPU-Sim PTX: 500000 instructions simulated : ctaid=(15,0,0) tid=(127,0,0)
GPGPU-Sim PTX: 600000 instructions simulated : ctaid=(42,0,0) tid=(191,0,0)
GPGPU-Sim uArch: cycles simulated: 2000  inst.: 625568 (ipc=312.8) sim_rate=312784 (inst/sec) elapsed = 0:0:00:02 / Tue Jan 29 20:58:30 2019
GPGPU-Sim PTX: 700000 instructions simulated : ctaid=(19,0,0) tid=(159,0,0)
GPGPU-Sim PTX: 800000 instructions simulated : ctaid=(9,0,0) tid=(95,0,0)
GPGPU-Sim PTX: 900000 instructions simulated : ctaid=(36,0,0) tid=(287,0,0)
GPGPU-Sim PTX: 1000000 instructions simulated : ctaid=(2,0,0) tid=(351,0,0)
GPGPU-Sim uArch: cycles simulated: 3000  inst.: 972224 (ipc=324.1) sim_rate=324074 (inst/sec) elapsed = 0:0:00:03 / Tue Jan 29 20:58:31 2019
GPGPU-Sim PTX: 1100000 instructions simulated : ctaid=(33,0,0) tid=(383,0,0)
GPGPU-Sim PTX: 1200000 instructions simulated : ctaid=(9,0,0) tid=(191,0,0)
GPGPU-Sim PTX: 1300000 instructions simulated : ctaid=(5,0,0) tid=(191,0,0)
GPGPU-Sim PTX: 1400000 instructions simulated : ctaid=(3,0,0) tid=(15,0,0)
GPGPU-Sim PTX: 1500000 instructions simulated : ctaid=(12,0,0) tid=(190,0,0)
GPGPU-Sim PTX: 1600000 instructions simulated : ctaid=(14,0,0) tid=(319,0,0)
GPGPU-Sim PTX: 1700000 instructions simulated : ctaid=(43,0,0) tid=(78,0,0)
GPGPU-Sim uArch: cycles simulated: 4000  inst.: 1606832 (ipc=401.7) sim_rate=401708 (inst/sec) elapsed = 0:0:00:04 / Tue Jan 29 20:58:32 2019
GPGPU-Sim PTX: 1800000 instructions simulated : ctaid=(17,0,0) tid=(348,0,0)
GPGPU-Sim PTX: 1900000 instructions simulated : ctaid=(36,0,0) tid=(290,0,0)
GPGPU-Sim PTX: 2000000 instructions simulated : ctaid=(24,0,0) tid=(413,0,0)
GPGPU-Sim PTX: 2100000 instructions simulated : ctaid=(29,0,0) tid=(247,0,0)
GPGPU-Sim uArch: cycles simulated: 5000  inst.: 2044698 (ipc=408.9) sim_rate=408939 (inst/sec) elapsed = 0:0:00:05 / Tue Jan 29 20:58:33 2019
GPGPU-Sim PTX: 2200000 instructions simulated : ctaid=(6,0,0) tid=(245,0,0)
GPGPU-Sim PTX: 2300000 instructions simulated : ctaid=(42,0,0) tid=(101,0,0)
GPGPU-Sim PTX: 2400000 instructions simulated : ctaid=(3,0,0) tid=(96,0,0)
GPGPU-Sim PTX: 2500000 instructions simulated : ctaid=(0,0,0) tid=(177,0,0)
GPGPU-Sim PTX: 2600000 instructions simulated : ctaid=(8,0,0) tid=(490,0,0)
GPGPU-Sim PTX: 2700000 instructions simulated : ctaid=(19,0,0) tid=(283,0,0)
GPGPU-Sim uArch: Shader 2 finished CTA #0 (6275,0), 2 CTAs running
GPGPU-Sim uArch: core:  2, cta: 0 initialized @(6276,0)
GPGPU-Sim uArch: Shader 1 finished CTA #0 (6306,0), 2 CTAs running
GPGPU-Sim uArch: core:  1, cta: 0 initialized @(6307,0)
GPGPU-Sim PTX: 2800000 instructions simulated : ctaid=(30,0,0) tid=(289,0,0)
GPGPU-Sim uArch: Shader 3 finished CTA #0 (6402,0), 2 CTAs running
GPGPU-Sim uArch: core:  3, cta: 0 initialized @(6403,0)
GPGPU-Sim uArch: Shader 8 finished CTA #0 (6428,0), 2 CTAs running
GPGPU-Sim uArch: core:  8, cta: 0 initialized @(6429,0)
GPGPU-Sim uArch: cycles simulated: 6500  inst.: 2767745 (ipc=425.8) sim_rate=461290 (inst/sec) elapsed = 0:0:00:06 / Tue Jan 29 20:58:34 2019
GPGPU-Sim PTX: 2900000 instructions simulated : ctaid=(26,0,0) tid=(249,0,0)
GPGPU-Sim uArch: Shader 7 finished CTA #0 (6691,0), 2 CTAs running
GPGPU-Sim uArch: core:  7, cta: 0 initialized @(6692,0)
GPGPU-Sim PTX: 3000000 instructions simulated : ctaid=(47,0,0) tid=(419,0,0)
GPGPU-Sim uArch: Shader 10 finished CTA #0 (6695,0), 2 CTAs running
GPGPU-Sim uArch: core: 10, cta: 0 initialized @(6696,0)
GPGPU-Sim uArch: Shader 4 finished CTA #0 (6771,0), 2 CTAs running
GPGPU-Sim uArch: core:  4, cta: 0 initialized @(6772,0)
GPGPU-Sim uArch: Shader 5 finished CTA #0 (6804,0), 2 CTAs running
GPGPU-Sim uArch: core:  5, cta: 0 initialized @(6805,0)
GPGPU-Sim uArch: Shader 11 finished CTA #0 (6872,0), 2 CTAs running
GPGPU-Sim uArch: core: 11, cta: 0 initialized @(6873,0)
GPGPU-Sim PTX: 3100000 instructions simulated : ctaid=(35,0,0) tid=(336,0,0)
GPGPU-Sim uArch: Shader 12 finished CTA #0 (6897,0), 2 CTAs running
GPGPU-Sim uArch: core: 12, cta: 0 initialized @(6898,0)
GPGPU-Sim uArch: Shader 0 finished CTA #0 (6928,0), 2 CTAs running
GPGPU-Sim uArch: core:  0, cta: 0 initialized @(6929,0)
GPGPU-Sim uArch: Shader 9 finished CTA #0 (6941,0), 2 CTAs running
GPGPU-Sim uArch: core:  9, cta: 0 initialized @(6942,0)
GPGPU-Sim uArch: Shader 13 finished CTA #0 (6946,0), 2 CTAs running
GPGPU-Sim uArch: core: 13, cta: 0 initialized @(6947,0)
GPGPU-Sim uArch: Shader 6 finished CTA #0 (6950,0), 2 CTAs running
GPGPU-Sim uArch: core:  6, cta: 0 initialized @(6951,0)
GPGPU-Sim uArch: Shader 14 finished CTA #0 (6964,0), 2 CTAs running
GPGPU-Sim uArch: core: 14, cta: 0 initialized @(6965,0)
GPGPU-Sim PTX: 3200000 instructions simulated : ctaid=(24,0,0) tid=(185,0,0)
GPGPU-Sim PTX: 3300000 instructions simulated : ctaid=(59,0,0) tid=(137,0,0)
GPGPU-Sim uArch: Shader 8 finished CTA #1 (7238,0), 2 CTAs running
GPGPU-Sim uArch: core:  8, cta: 1 initialized @(7239,0)
GPGPU-Sim uArch: Shader 11 finished CTA #1 (7242,0), 2 CTAs running
GPGPU-Sim uArch: core: 11, cta: 1 initialized @(7243,0)
GPGPU-Sim uArch: Shader 1 finished CTA #1 (7259,0), 2 CTAs running
GPGPU-Sim uArch: core:  1, cta: 1 initialized @(7260,0)
GPGPU-Sim uArch: Shader 5 finished CTA #1 (7333,0), 2 CTAs running
GPGPU-Sim uArch: core:  5, cta: 1 initialized @(7334,0)
GPGPU-Sim uArch: Shader 2 finished CTA #1 (7366,0), 2 CTAs running
GPGPU-Sim uArch: core:  2, cta: 1 initialized @(7367,0)
GPGPU-Sim PTX: 3400000 instructions simulated : ctaid=(39,0,0) tid=(429,0,0)
GPGPU-Sim uArch: cycles simulated: 7500  inst.: 3313278 (ipc=441.8) sim_rate=473325 (inst/sec) elapsed = 0:0:00:07 / Tue Jan 29 20:58:35 2019
GPGPU-Sim PTX: 3500000 instructions simulated : ctaid=(42,0,0) tid=(462,0,0)
GPGPU-Sim uArch: Shader 6 finished CTA #1 (7576,0), 2 CTAs running
GPGPU-Sim uArch: core:  6, cta: 1 initialized @(7577,0)
GPGPU-Sim uArch: Shader 12 finished CTA #1 (7590,0), 2 CTAs running
GPGPU-Sim uArch: core: 12, cta: 1 initialized @(7591,0)
GPGPU-Sim uArch: Shader 0 finished CTA #1 (7596,0), 2 CTAs running
GPGPU-Sim uArch: core:  0, cta: 1 initialized @(7597,0)
GPGPU-Sim uArch: Shader 3 finished CTA #1 (7612,0), 2 CTAs running
GPGPU-Sim uArch: core:  3, cta: 1 initialized @(7613,0)
GPGPU-Sim uArch: Shader 9 finished CTA #1 (7619,0), 2 CTAs running
GPGPU-Sim uArch: core:  9, cta: 1 initialized @(7620,0)
GPGPU-Sim uArch: Shader 14 finished CTA #1 (7625,0), 2 CTAs running
GPGPU-Sim uArch: core: 14, cta: 1 initialized @(7626,0)
GPGPU-Sim uArch: Shader 4 finished CTA #1 (7656,0), 2 CTAs running
GPGPU-Sim uArch: core:  4, cta: 1 initialized @(7657,0)
GPGPU-Sim uArch: Shader 7 finished CTA #1 (7681,0), 2 CTAs running
GPGPU-Sim uArch: core:  7, cta: 1 initialized @(7682,0)
GPGPU-Sim uArch: Shader 10 finished CTA #1 (7682,0), 2 CTAs running
GPGPU-Sim uArch: core: 10, cta: 1 initialized @(7683,0)
GPGPU-Sim uArch: Shader 13 finished CTA #1 (7701,0), 2 CTAs running
GPGPU-Sim uArch: core: 13, cta: 1 initialized @(7702,0)
GPGPU-Sim PTX: 3600000 instructions simulated : ctaid=(40,0,0) tid=(407,0,0)
GPGPU-Sim PTX: 3700000 instructions simulated : ctaid=(30,0,0) tid=(113,0,0)
GPGPU-Sim PTX: 3800000 instructions simulated : ctaid=(46,0,0) tid=(454,0,0)
GPGPU-Sim uArch: cycles simulated: 8000  inst.: 3646130 (ipc=455.8) sim_rate=455766 (inst/sec) elapsed = 0:0:00:08 / Tue Jan 29 20:58:36 2019
GPGPU-Sim PTX: 3900000 instructions simulated : ctaid=(33,0,0) tid=(15,0,0)
GPGPU-Sim uArch: Shader 1 finished CTA #2 (8192,0), 2 CTAs running
GPGPU-Sim uArch: core:  1, cta: 2 initialized @(8193,0)
GPGPU-Sim PTX: 4000000 instructions simulated : ctaid=(68,0,0) tid=(366,0,0)
GPGPU-Sim PTX: 4100000 instructions simulated : ctaid=(66,0,0) tid=(395,0,0)
GPGPU-Sim PTX: 4200000 instructions simulated : ctaid=(74,0,0) tid=(435,0,0)
GPGPU-Sim uArch: Shader 5 finished CTA #2 (8701,0), 2 CTAs running
GPGPU-Sim uArch: core:  5, cta: 2 initialized @(8702,0)
GPGPU-Sim uArch: Shader 8 finished CTA #2 (8787,0), 2 CTAs running
GPGPU-Sim uArch: core:  8, cta: 2 initialized @(8788,0)
GPGPU-Sim uArch: Shader 3 finished CTA #2 (8815,0), 2 CTAs running
GPGPU-Sim uArch: core:  3, cta: 2 initialized @(8816,0)
GPGPU-Sim uArch: Shader 2 finished CTA #2 (8846,0), 2 CTAs running
GPGPU-Sim uArch: core:  2, cta: 2 initialized @(8847,0)
GPGPU-Sim uArch: Shader 4 finished CTA #2 (8849,0), 2 CTAs running
GPGPU-Sim uArch: core:  4, cta: 2 initialized @(8850,0)
GPGPU-Sim PTX: 4300000 instructions simulated : ctaid=(80,0,0) tid=(239,0,0)
GPGPU-Sim uArch: Shader 11 finished CTA #2 (8936,0), 2 CTAs running
GPGPU-Sim uArch: core: 11, cta: 2 initialized @(8937,0)
GPGPU-Sim uArch: Shader 6 finished CTA #2 (8947,0), 2 CTAs running
GPGPU-Sim uArch: core:  6, cta: 2 initialized @(8948,0)
GPGPU-Sim uArch: Shader 12 finished CTA #2 (8949,0), 2 CTAs running
GPGPU-Sim uArch: core: 12, cta: 2 initialized @(8950,0)
GPGPU-Sim uArch: Shader 14 finished CTA #2 (8959,0), 2 CTAs running
GPGPU-Sim uArch: core: 14, cta: 2 initialized @(8960,0)
GPGPU-Sim uArch: Shader 0 finished CTA #2 (8966,0), 2 CTAs running
GPGPU-Sim uArch: core:  0, cta: 2 initialized @(8967,0)
GPGPU-Sim uArch: Shader 9 finished CTA #2 (8971,0), 2 CTAs running
GPGPU-Sim uArch: core:  9, cta: 2 initialized @(8972,0)
GPGPU-Sim uArch: Shader 7 finished CTA #2 (8993,0), 2 CTAs running
GPGPU-Sim uArch: core:  7, cta: 2 initialized @(8994,0)
GPGPU-Sim uArch: cycles simulated: 9000  inst.: 4159813 (ipc=462.2) sim_rate=462201 (inst/sec) elapsed = 0:0:00:09 / Tue Jan 29 20:58:37 2019
GPGPU-Sim uArch: Shader 10 finished CTA #2 (9001,0), 2 CTAs running
GPGPU-Sim uArch: core: 10, cta: 2 initialized @(9002,0)
GPGPU-Sim uArch: Shader 13 finished CTA #2 (9003,0), 2 CTAs running
GPGPU-Sim uArch: core: 13, cta: 2 initialized @(9004,0)
GPGPU-Sim PTX: 4400000 instructions simulated : ctaid=(48,0,0) tid=(287,0,0)
GPGPU-Sim PTX: 4500000 instructions simulated : ctaid=(51,0,0) tid=(171,0,0)
GPGPU-Sim PTX: 4600000 instructions simulated : ctaid=(60,0,0) tid=(5,0,0)
GPGPU-Sim PTX: 4700000 instructions simulated : ctaid=(65,0,0) tid=(265,0,0)
GPGPU-Sim uArch: cycles simulated: 9500  inst.: 4485394 (ipc=472.1) sim_rate=448539 (inst/sec) elapsed = 0:0:00:10 / Tue Jan 29 20:58:38 2019
GPGPU-Sim PTX: 4800000 instructions simulated : ctaid=(53,0,0) tid=(343,0,0)
GPGPU-Sim PTX: 4900000 instructions simulated : ctaid=(59,0,0) tid=(121,0,0)
GPGPU-Sim PTX: 5000000 instructions simulated : ctaid=(73,0,0) tid=(172,0,0)
GPGPU-Sim PTX: 5100000 instructions simulated : ctaid=(59,0,0) tid=(369,0,0)
GPGPU-Sim PTX: 5200000 instructions simulated : ctaid=(86,0,0) tid=(315,0,0)
GPGPU-Sim uArch: cycles simulated: 10500  inst.: 5053002 (ipc=481.2) sim_rate=459363 (inst/sec) elapsed = 0:0:00:11 / Tue Jan 29 20:58:39 2019
GPGPU-Sim PTX: 5300000 instructions simulated : ctaid=(62,0,0) tid=(39,0,0)
GPGPU-Sim PTX: 5400000 instructions simulated : ctaid=(47,0,0) tid=(385,0,0)
GPGPU-Sim PTX: 5500000 instructions simulated : ctaid=(66,0,0) tid=(289,0,0)
GPGPU-Sim uArch: Shader 2 finished CTA #0 (10905,0), 2 CTAs running
GPGPU-Sim uArch: core:  2, cta: 0 initialized @(10906,0)
GPGPU-Sim PTX: 5600000 instructions simulated : ctaid=(81,0,0) tid=(247,0,0)
GPGPU-Sim uArch: Shader 8 finished CTA #0 (11084,0), 2 CTAs running
GPGPU-Sim uArch: core:  8, cta: 0 initialized @(11085,0)
GPGPU-Sim uArch: Shader 1 finished CTA #0 (11149,0), 2 CTAs running
GPGPU-Sim uArch: core:  1, cta: 0 initialized @(11150,0)
GPGPU-Sim uArch: Shader 11 finished CTA #0 (11192,0), 2 CTAs running
GPGPU-Sim uArch: core: 11, cta: 0 initialized @(11193,0)
GPGPU-Sim uArch: Shader 5 finished CTA #0 (11202,0), 2 CTAs running
GPGPU-Sim uArch: core:  5, cta: 0 initialized @(11203,0)
GPGPU-Sim PTX: 5700000 instructions simulated : ctaid=(60,0,0) tid=(470,0,0)
GPGPU-Sim PTX: 5800000 instructions simulated : ctaid=(61,0,0) tid=(366,0,0)
GPGPU-Sim uArch: Shader 3 finished CTA #0 (11478,0), 2 CTAs running
GPGPU-Sim uArch: core:  3, cta: 0 initialized @(11479,0)
GPGPU-Sim uArch: cycles simulated: 11500  inst.: 5616199 (ipc=488.4) sim_rate=468016 (inst/sec) elapsed = 0:0:00:12 / Tue Jan 29 20:58:40 2019
GPGPU-Sim uArch: Shader 6 finished CTA #0 (11516,0), 2 CTAs running
GPGPU-Sim uArch: core:  6, cta: 0 initialized @(11517,0)
GPGPU-Sim uArch: Shader 0 finished CTA #0 (11520,0), 2 CTAs running
GPGPU-Sim uArch: core:  0, cta: 0 initialized @(11521,0)
GPGPU-Sim PTX: 5900000 instructions simulated : ctaid=(69,0,0) tid=(209,0,0)
GPGPU-Sim uArch: Shader 7 finished CTA #0 (11705,0), 2 CTAs running
GPGPU-Sim uArch: core:  7, cta: 0 initialized @(11706,0)
GPGPU-Sim PTX: 6000000 instructions simulated : ctaid=(61,0,0) tid=(365,0,0)
GPGPU-Sim uArch: Shader 9 finished CTA #0 (11744,0), 2 CTAs running
GPGPU-Sim uArch: core:  9, cta: 0 initialized @(11745,0)
GPGPU-Sim uArch: Shader 10 finished CTA #0 (11865,0), 2 CTAs running
GPGPU-Sim uArch: core: 10, cta: 0 initialized @(11866,0)
GPGPU-Sim PTX: 6100000 instructions simulated : ctaid=(85,0,0) tid=(298,0,0)
GPGPU-Sim uArch: cycles simulated: 12000  inst.: 5892228 (ipc=491.0) sim_rate=453248 (inst/sec) elapsed = 0:0:00:13 / Tue Jan 29 20:58:41 2019
GPGPU-Sim PTX: 6200000 instructions simulated : ctaid=(92,0,0) tid=(443,0,0)
GPGPU-Sim uArch: Shader 4 finished CTA #0 (12154,0), 2 CTAs running
GPGPU-Sim uArch: core:  4, cta: 0 initialized @(12155,0)
GPGPU-Sim PTX: 6300000 instructions simulated : ctaid=(101,0,0) tid=(331,0,0)
GPGPU-Sim PTX: 6400000 instructions simulated : ctaid=(78,0,0) tid=(439,0,0)
GPGPU-Sim uArch: Shader 14 finished CTA #0 (12554,0), 2 CTAs running
GPGPU-Sim uArch: core: 14, cta: 0 initialized @(12555,0)
GPGPU-Sim PTX: 6500000 instructions simulated : ctaid=(63,0,0) tid=(102,0,0)
GPGPU-Sim uArch: Shader 12 finished CTA #0 (12600,0), 2 CTAs running
GPGPU-Sim uArch: core: 12, cta: 0 initialized @(12601,0)
GPGPU-Sim uArch: Shader 13 finished CTA #0 (12639,0), 2 CTAs running
GPGPU-Sim uArch: core: 13, cta: 0 initialized @(12640,0)
GPGPU-Sim PTX: 6600000 instructions simulated : ctaid=(74,0,0) tid=(509,0,0)
GPGPU-Sim uArch: Shader 1 finished CTA #1 (12772,0), 2 CTAs running
GPGPU-Sim uArch: core:  1, cta: 1 initialized @(12773,0)
GPGPU-Sim uArch: Shader 8 finished CTA #1 (12863,0), 2 CTAs running
GPGPU-Sim uArch: core:  8, cta: 1 initialized @(12864,0)
GPGPU-Sim uArch: Shader 5 finished CTA #1 (12917,0), 2 CTAs running
GPGPU-Sim uArch: core:  5, cta: 1 initialized @(12918,0)
GPGPU-Sim PTX: 6700000 instructions simulated : ctaid=(85,0,0) tid=(271,0,0)
GPGPU-Sim uArch: cycles simulated: 13000  inst.: 6464684 (ipc=497.3) sim_rate=461763 (inst/sec) elapsed = 0:0:00:14 / Tue Jan 29 20:58:42 2019
GPGPU-Sim uArch: Shader 11 finished CTA #1 (13045,0), 2 CTAs running
GPGPU-Sim uArch: core: 11, cta: 1 initialized @(13046,0)
GPGPU-Sim PTX: 6800000 instructions simulated : ctaid=(75,0,0) tid=(452,0,0)
GPGPU-Sim uArch: Shader 3 finished CTA #1 (13138,0), 2 CTAs running
GPGPU-Sim uArch: core:  3, cta: 1 initialized @(13139,0)
GPGPU-Sim uArch: Shader 2 finished CTA #1 (13153,0), 2 CTAs running
GPGPU-Sim uArch: core:  2, cta: 1 initialized @(13154,0)
GPGPU-Sim PTX: 6900000 instructions simulated : ctaid=(77,0,0) tid=(232,0,0)
GPGPU-Sim uArch: Shader 6 finished CTA #1 (13314,0), 2 CTAs running
GPGPU-Sim uArch: core:  6, cta: 1 initialized @(13315,0)
GPGPU-Sim PTX: 7000000 instructions simulated : ctaid=(89,0,0) tid=(426,0,0)
GPGPU-Sim uArch: Shader 7 finished CTA #1 (13411,0), 2 CTAs running
GPGPU-Sim uArch: core:  7, cta: 1 initialized @(13412,0)
GPGPU-Sim uArch: Shader 9 finished CTA #1 (13416,0), 2 CTAs running
GPGPU-Sim uArch: Shader 10 finished CTA #1 (13416,0), 2 CTAs running
GPGPU-Sim uArch: core:  9, cta: 1 initialized @(13417,0)
GPGPU-Sim uArch: core: 10, cta: 1 initialized @(13417,0)
GPGPU-Sim uArch: cycles simulated: 13500  inst.: 6747482 (ipc=499.8) sim_rate=449832 (inst/sec) elapsed = 0:0:00:15 / Tue Jan 29 20:58:43 2019
GPGPU-Sim uArch: Shader 12 finished CTA #1 (13508,0), 2 CTAs running
GPGPU-Sim uArch: core: 12, cta: 1 initialized @(13509,0)
GPGPU-Sim uArch: Shader 0 finished CTA #1 (13542,0), 2 CTAs running
GPGPU-Sim uArch: core:  0, cta: 1 initialized @(13543,0)
GPGPU-Sim uArch: Shader 13 finished CTA #1 (13551,0), 2 CTAs running
GPGPU-Sim uArch: core: 13, cta: 1 initialized @(13552,0)
GPGPU-Sim PTX: 7100000 instructions simulated : ctaid=(83,0,0) tid=(49,0,0)
GPGPU-Sim uArch: Shader 4 finished CTA #1 (13637,0), 2 CTAs running
GPGPU-Sim uArch: core:  4, cta: 1 initialized @(13638,0)
GPGPU-Sim PTX: 7200000 instructions simulated : ctaid=(80,0,0) tid=(367,0,0)
GPGPU-Sim uArch: Shader 14 finished CTA #1 (13784,0), 2 CTAs running
GPGPU-Sim uArch: core: 14, cta: 1 initialized @(13785,0)
GPGPU-Sim PTX: 7300000 instructions simulated : ctaid=(119,0,0) tid=(173,0,0)
GPGPU-Sim PTX: 7400000 instructions simulated : ctaid=(98,0,0) tid=(427,0,0)
GPGPU-Sim PTX: 7500000 instructions simulated : ctaid=(102,0,0) tid=(454,0,0)
GPGPU-Sim PTX: 7600000 instructions simulated : ctaid=(113,0,0) tid=(367,0,0)
GPGPU-Sim uArch: Shader 1 finished CTA #2 (14428,0), 2 CTAs running
GPGPU-Sim uArch: core:  1, cta: 2 initialized @(14429,0)
GPGPU-Sim PTX: 7700000 instructions simulated : ctaid=(95,0,0) tid=(400,0,0)
GPGPU-Sim uArch: cycles simulated: 14500  inst.: 7392792 (ipc=509.8) sim_rate=462049 (inst/sec) elapsed = 0:0:00:16 / Tue Jan 29 20:58:44 2019
GPGPU-Sim uArch: Shader 3 finished CTA #2 (14574,0), 2 CTAs running
GPGPU-Sim uArch: core:  3, cta: 2 initialized @(14575,0)
GPGPU-Sim uArch: Shader 2 finished CTA #2 (14584,0), 2 CTAs running
GPGPU-Sim uArch: core:  2, cta: 2 initialized @(14585,0)
GPGPU-Sim PTX: 7800000 instructions simulated : ctaid=(99,0,0) tid=(96,0,0)
GPGPU-Sim uArch: Shader 5 finished CTA #2 (14638,0), 2 CTAs running
GPGPU-Sim uArch: core:  5, cta: 2 initialized @(14639,0)
GPGPU-Sim uArch: Shader 8 finished CTA #2 (14662,0), 2 CTAs running
GPGPU-Sim uArch: core:  8, cta: 2 initialized @(14663,0)
GPGPU-Sim uArch: Shader 11 finished CTA #2 (14773,0), 2 CTAs running
GPGPU-Sim uArch: core: 11, cta: 2 initialized @(14774,0)
GPGPU-Sim PTX: 7900000 instructions simulated : ctaid=(80,0,0) tid=(214,0,0)
GPGPU-Sim uArch: Shader 6 finished CTA #2 (14859,0), 2 CTAs running
GPGPU-Sim uArch: core:  6, cta: 2 initialized @(14860,0)
GPGPU-Sim uArch: Shader 7 finished CTA #2 (14913,0), 2 CTAs running
GPGPU-Sim uArch: core:  7, cta: 2 initialized @(14914,0)
GPGPU-Sim PTX: 8000000 instructions simulated : ctaid=(109,0,0) tid=(27,0,0)
GPGPU-Sim uArch: Shader 10 finished CTA #2 (14946,0), 2 CTAs running
GPGPU-Sim uArch: core: 10, cta: 2 initialized @(14947,0)
GPGPU-Sim uArch: Shader 9 finished CTA #2 (14949,0), 2 CTAs running
GPGPU-Sim uArch: core:  9, cta: 2 initialized @(14950,0)
GPGPU-Sim uArch: Shader 0 finished CTA #2 (14982,0), 2 CTAs running
GPGPU-Sim uArch: core:  0, cta: 2 initialized @(14983,0)
GPGPU-Sim uArch: cycles simulated: 15000  inst.: 7692877 (ipc=512.9) sim_rate=452522 (inst/sec) elapsed = 0:0:00:17 / Tue Jan 29 20:58:45 2019
GPGPU-Sim PTX: 8100000 instructions simulated : ctaid=(93,0,0) tid=(61,0,0)
GPGPU-Sim uArch: Shader 14 finished CTA #2 (15145,0), 2 CTAs running
GPGPU-Sim uArch: core: 14, cta: 2 initialized @(15146,0)
GPGPU-Sim uArch: Shader 12 finished CTA #2 (15186,0), 2 CTAs running
GPGPU-Sim uArch: core: 12, cta: 2 initialized @(15187,0)
GPGPU-Sim uArch: Shader 13 finished CTA #2 (15222,0), 2 CTAs running
GPGPU-Sim uArch: core: 13, cta: 2 initialized @(15223,0)
GPGPU-Sim uArch: Shader 4 finished CTA #2 (15240,0), 2 CTAs running
GPGPU-Sim uArch: core:  4, cta: 2 initialized @(15241,0)
GPGPU-Sim PTX: 8200000 instructions simulated : ctaid=(96,0,0) tid=(367,0,0)
GPGPU-Sim PTX: 8300000 instructions simulated : ctaid=(105,0,0) tid=(240,0,0)
GPGPU-Sim PTX: 8400000 instructions simulated : ctaid=(98,0,0) tid=(234,0,0)
GPGPU-Sim PTX: 8500000 instructions simulated : ctaid=(102,0,0) tid=(69,0,0)
GPGPU-Sim PTX: 8600000 instructions simulated : ctaid=(95,0,0) tid=(403,0,0)
GPGPU-Sim uArch: cycles simulated: 16000  inst.: 8290813 (ipc=518.2) sim_rate=460600 (inst/sec) elapsed = 0:0:00:18 / Tue Jan 29 20:58:46 2019
GPGPU-Sim PTX: 8700000 instructions simulated : ctaid=(111,0,0) tid=(153,0,0)
GPGPU-Sim PTX: 8800000 instructions simulated : ctaid=(90,0,0) tid=(409,0,0)
GPGPU-Sim PTX: 8900000 instructions simulated : ctaid=(112,0,0) tid=(229,0,0)
GPGPU-Sim uArch: Shader 2 finished CTA #0 (16472,0), 2 CTAs running
GPGPU-Sim uArch: core:  2, cta: 0 initialized @(16473,0)
GPGPU-Sim uArch: cycles simulated: 16500  inst.: 8568735 (ipc=519.3) sim_rate=450986 (inst/sec) elapsed = 0:0:00:19 / Tue Jan 29 20:58:47 2019
GPGPU-Sim uArch: Shader 5 finished CTA #0 (16532,0), 2 CTAs running
GPGPU-Sim uArch: core:  5, cta: 0 initialized @(16533,0)
GPGPU-Sim PTX: 9000000 instructions simulated : ctaid=(96,0,0) tid=(217,0,0)
GPGPU-Sim uArch: Shader 1 finished CTA #0 (16609,0), 2 CTAs running
GPGPU-Sim uArch: core:  1, cta: 0 initialized @(16610,0)
GPGPU-Sim uArch: Shader 11 finished CTA #0 (16668,0), 2 CTAs running
GPGPU-Sim uArch: core: 11, cta: 0 initialized @(16669,0)
GPGPU-Sim uArch: Shader 8 finished CTA #0 (16755,0), 2 CTAs running
GPGPU-Sim uArch: core:  8, cta: 0 initialized @(16756,0)
GPGPU-Sim PTX: 9100000 instructions simulated : ctaid=(127,0,0) tid=(389,0,0)
GPGPU-Sim PTX: 9200000 instructions simulated : ctaid=(129,0,0) tid=(442,0,0)
GPGPU-Sim uArch: Shader 3 finished CTA #0 (16931,0), 2 CTAs running
GPGPU-Sim uArch: core:  3, cta: 0 initialized @(16932,0)
GPGPU-Sim uArch: Shader 6 finished CTA #0 (16961,0), 2 CTAs running
GPGPU-Sim uArch: core:  6, cta: 0 initialized @(16962,0)
GPGPU-Sim uArch: Shader 9 finished CTA #0 (16999,0), 2 CTAs running
GPGPU-Sim uArch: core:  9, cta: 0 initialized @(17000,0)
GPGPU-Sim uArch: Shader 0 finished CTA #0 (17063,0), 2 CTAs running
GPGPU-Sim uArch: core:  0, cta: 0 initialized @(17064,0)
GPGPU-Sim PTX: 9300000 instructions simulated : ctaid=(102,0,0) tid=(441,0,0)
GPGPU-Sim uArch: Shader 10 finished CTA #0 (17103,0), 2 CTAs running
GPGPU-Sim uArch: core: 10, cta: 0 initialized @(17104,0)
GPGPU-Sim uArch: Shader 7 finished CTA #0 (17145,0), 2 CTAs running
GPGPU-Sim uArch: core:  7, cta: 0 initialized @(17146,0)
GPGPU-Sim PTX: 9400000 instructions simulated : ctaid=(107,0,0) tid=(42,0,0)
GPGPU-Sim PTX: 9500000 instructions simulated : ctaid=(137,0,0) tid=(256,0,0)
GPGPU-Sim uArch: Shader 4 finished CTA #0 (17474,0), 2 CTAs running
GPGPU-Sim uArch: core:  4, cta: 0 initialized @(17475,0)
GPGPU-Sim uArch: cycles simulated: 17500  inst.: 9149456 (ipc=522.8) sim_rate=457472 (inst/sec) elapsed = 0:0:00:20 / Tue Jan 29 20:58:48 2019
GPGPU-Sim PTX: 9600000 instructions simulated : ctaid=(138,0,0) tid=(244,0,0)
GPGPU-Sim uArch: Shader 14 finished CTA #0 (17577,0), 2 CTAs running
GPGPU-Sim uArch: core: 14, cta: 0 initialized @(17578,0)
GPGPU-Sim uArch: Shader 13 finished CTA #0 (17642,0), 2 CTAs running
GPGPU-Sim uArch: core: 13, cta: 0 initialized @(17643,0)
GPGPU-Sim PTX: 9700000 instructions simulated : ctaid=(107,0,0) tid=(225,0,0)
GPGPU-Sim uArch: Shader 12 finished CTA #0 (17727,0), 2 CTAs running
GPGPU-Sim uArch: core: 12, cta: 0 initialized @(17728,0)
GPGPU-Sim PTX: 9800000 instructions simulated : ctaid=(134,0,0) tid=(104,0,0)
GPGPU-Sim uArch: cycles simulated: 18000  inst.: 9440363 (ipc=524.5) sim_rate=449541 (inst/sec) elapsed = 0:0:00:21 / Tue Jan 29 20:58:49 2019
GPGPU-Sim PTX: 9900000 instructions simulated : ctaid=(111,0,0) tid=(102,0,0)
GPGPU-Sim PTX: 10000000 instructions simulated : ctaid=(133,0,0) tid=(119,0,0)
GPGPU-Sim PTX: 10100000 instructions simulated : ctaid=(109,0,0) tid=(245,0,0)
GPGPU-Sim uArch: Shader 1 finished CTA #1 (18409,0), 2 CTAs running
GPGPU-Sim uArch: core:  1, cta: 1 initialized @(18410,0)
GPGPU-Sim uArch: Shader 2 finished CTA #1 (18474,0), 2 CTAs running
GPGPU-Sim uArch: core:  2, cta: 1 initialized @(18475,0)
GPGPU-Sim uArch: cycles simulated: 18500  inst.: 9725947 (ipc=525.7) sim_rate=442088 (inst/sec) elapsed = 0:0:00:22 / Tue Jan 29 20:58:50 2019
GPGPU-Sim uArch: Shader 8 finished CTA #1 (18537,0), 2 CTAs running
GPGPU-Sim uArch: core:  8, cta: 1 initialized @(18538,0)
GPGPU-Sim PTX: 10200000 instructions simulated : ctaid=(152,0,0) tid=(271,0,0)
GPGPU-Sim uArch: Shader 5 finished CTA #1 (18613,0), 2 CTAs running
GPGPU-Sim uArch: core:  5, cta: 1 initialized @(18614,0)
GPGPU-Sim uArch: Shader 3 finished CTA #1 (18702,0), 2 CTAs running
GPGPU-Sim uArch: core:  3, cta: 1 initialized @(18703,0)
GPGPU-Sim PTX: 10300000 instructions simulated : ctaid=(143,0,0) tid=(339,0,0)
GPGPU-Sim uArch: Shader 0 finished CTA #1 (18893,0), 2 CTAs running
GPGPU-Sim uArch: core:  0, cta: 1 initialized @(18894,0)
GPGPU-Sim uArch: Shader 11 finished CTA #1 (18894,0), 2 CTAs running
GPGPU-Sim uArch: core: 11, cta: 1 initialized @(18895,0)
GPGPU-Sim PTX: 10400000 instructions simulated : ctaid=(119,0,0) tid=(361,0,0)
GPGPU-Sim uArch: Shader 6 finished CTA #1 (18933,0), 2 CTAs running
GPGPU-Sim uArch: core:  6, cta: 1 initialized @(18934,0)
GPGPU-Sim uArch: Shader 7 finished CTA #1 (18991,0), 2 CTAs running
GPGPU-Sim uArch: core:  7, cta: 1 initialized @(18992,0)
GPGPU-Sim uArch: cycles simulated: 19000  inst.: 10007931 (ipc=526.7) sim_rate=435127 (inst/sec) elapsed = 0:0:00:23 / Tue Jan 29 20:58:51 2019
GPGPU-Sim uArch: Shader 10 finished CTA #1 (19001,0), 2 CTAs running
GPGPU-Sim uArch: core: 10, cta: 1 initialized @(19002,0)
GPGPU-Sim PTX: 10500000 instructions simulated : ctaid=(115,0,0) tid=(348,0,0)
GPGPU-Sim uArch: Shader 9 finished CTA #1 (19088,0), 2 CTAs running
GPGPU-Sim uArch: core:  9, cta: 1 initialized @(19089,0)
GPGPU-Sim PTX: 10600000 instructions simulated : ctaid=(139,0,0) tid=(420,0,0)
GPGPU-Sim uArch: Shader 12 finished CTA #1 (19342,0), 2 CTAs running
GPGPU-Sim uArch: core: 12, cta: 1 initialized @(19343,0)
GPGPU-Sim uArch: Shader 14 finished CTA #1 (19356,0), 2 CTAs running
GPGPU-Sim uArch: core: 14, cta: 1 initialized @(19357,0)
GPGPU-Sim PTX: 10700000 instructions simulated : ctaid=(146,0,0) tid=(291,0,0)
GPGPU-Sim uArch: Shader 4 finished CTA #1 (19399,0), 2 CTAs running
GPGPU-Sim uArch: core:  4, cta: 1 initialized @(19400,0)
GPGPU-Sim uArch: Shader 13 finished CTA #1 (19412,0), 2 CTAs running
GPGPU-Sim uArch: core: 13, cta: 1 initialized @(19413,0)
GPGPU-Sim PTX: 10800000 instructions simulated : ctaid=(156,0,0) tid=(159,0,0)
GPGPU-Sim PTX: 10900000 instructions simulated : ctaid=(128,0,0) tid=(222,0,0)
GPGPU-Sim PTX: 11000000 instructions simulated : ctaid=(150,0,0) tid=(359,0,0)
GPGPU-Sim uArch: cycles simulated: 20000  inst.: 10628377 (ipc=531.4) sim_rate=442849 (inst/sec) elapsed = 0:0:00:24 / Tue Jan 29 20:58:52 2019
GPGPU-Sim PTX: 11100000 instructions simulated : ctaid=(147,0,0) tid=(224,0,0)
GPGPU-Sim uArch: Shader 1 finished CTA #2 (20147,0), 2 CTAs running
GPGPU-Sim uArch: core:  1, cta: 2 initialized @(20148,0)
GPGPU-Sim PTX: 11200000 instructions simulated : ctaid=(157,0,0) tid=(417,0,0)
GPGPU-Sim uArch: Shader 2 finished CTA #2 (20270,0), 2 CTAs running
GPGPU-Sim uArch: core:  2, cta: 2 initialized @(20271,0)
GPGPU-Sim uArch: Shader 8 finished CTA #2 (20326,0), 2 CTAs running
GPGPU-Sim uArch: core:  8, cta: 2 initialized @(20327,0)
GPGPU-Sim PTX: 11300000 instructions simulated : ctaid=(161,0,0) tid=(273,0,0)
GPGPU-Sim uArch: Shader 3 finished CTA #2 (20443,0), 2 CTAs running
GPGPU-Sim uArch: core:  3, cta: 2 initialized @(20444,0)
GPGPU-Sim uArch: Shader 5 finished CTA #2 (20488,0), 2 CTAs running
GPGPU-Sim uArch: core:  5, cta: 2 initialized @(20489,0)
GPGPU-Sim uArch: Shader 11 finished CTA #2 (20498,0), 2 CTAs running
GPGPU-Sim uArch: core: 11, cta: 2 initialized @(20499,0)
GPGPU-Sim uArch: cycles simulated: 20500  inst.: 10918843 (ipc=532.6) sim_rate=436753 (inst/sec) elapsed = 0:0:00:25 / Tue Jan 29 20:58:53 2019
GPGPU-Sim PTX: 11400000 instructions simulated : ctaid=(159,0,0) tid=(367,0,0)
GPGPU-Sim uArch: Shader 6 finished CTA #2 (20588,0), 2 CTAs running
GPGPU-Sim uArch: core:  6, cta: 2 initialized @(20589,0)
GPGPU-Sim PTX: 11500000 instructions simulated : ctaid=(141,0,0) tid=(74,0,0)
GPGPU-Sim uArch: Shader 9 finished CTA #2 (20741,0), 2 CTAs running
GPGPU-Sim uArch: core:  9, cta: 2 initialized @(20742,0)
GPGPU-Sim uArch: Shader 7 finished CTA #2 (20792,0), 2 CTAs running
GPGPU-Sim uArch: core:  7, cta: 2 initialized @(20793,0)
GPGPU-Sim PTX: 11600000 instructions simulated : ctaid=(169,0,0) tid=(120,0,0)
GPGPU-Sim uArch: Shader 10 finished CTA #2 (20860,0), 2 CTAs running
GPGPU-Sim uArch: core: 10, cta: 2 initialized @(20861,0)
GPGPU-Sim uArch: Shader 12 finished CTA #2 (20928,0), 2 CTAs running
GPGPU-Sim uArch: core: 12, cta: 2 initialized @(20929,0)
GPGPU-Sim uArch: Shader 0 finished CTA #2 (20947,0), 2 CTAs running
GPGPU-Sim uArch: core:  0, cta: 2 initialized @(20948,0)
GPGPU-Sim uArch: cycles simulated: 21000  inst.: 11206977 (ipc=533.7) sim_rate=431037 (inst/sec) elapsed = 0:0:00:26 / Tue Jan 29 20:58:54 2019
GPGPU-Sim PTX: 11700000 instructions simulated : ctaid=(169,0,0) tid=(253,0,0)
GPGPU-Sim uArch: Shader 14 finished CTA #2 (21121,0), 2 CTAs running
GPGPU-Sim uArch: core: 14, cta: 2 initialized @(21122,0)
GPGPU-Sim PTX: 11800000 instructions simulated : ctaid=(175,0,0) tid=(362,0,0)
GPGPU-Sim uArch: Shader 13 finished CTA #2 (21201,0), 2 CTAs running
GPGPU-Sim uArch: core: 13, cta: 2 initialized @(21202,0)
GPGPU-Sim uArch: Shader 4 finished CTA #2 (21209,0), 2 CTAs running
GPGPU-Sim uArch: core:  4, cta: 2 initialized @(21210,0)
GPGPU-Sim PTX: 11900000 instructions simulated : ctaid=(161,0,0) tid=(397,0,0)
GPGPU-Sim PTX: 12000000 instructions simulated : ctaid=(148,0,0) tid=(403,0,0)
GPGPU-Sim PTX: 12100000 instructions simulated : ctaid=(161,0,0) tid=(217,0,0)
GPGPU-Sim PTX: 12200000 instructions simulated : ctaid=(157,0,0) tid=(387,0,0)
GPGPU-Sim PTX: 12300000 instructions simulated : ctaid=(156,0,0) tid=(55,0,0)
GPGPU-Sim uArch: cycles simulated: 22000  inst.: 11812178 (ipc=536.9) sim_rate=437488 (inst/sec) elapsed = 0:0:00:27 / Tue Jan 29 20:58:55 2019
GPGPU-Sim uArch: Shader 1 finished CTA #0 (22051,0), 2 CTAs running
GPGPU-Sim uArch: core:  1, cta: 0 initialized @(22052,0)
GPGPU-Sim PTX: 12400000 instructions simulated : ctaid=(179,0,0) tid=(276,0,0)
GPGPU-Sim uArch: Shader 5 finished CTA #0 (22150,0), 2 CTAs running
GPGPU-Sim uArch: core:  5, cta: 0 initialized @(22151,0)
GPGPU-Sim uArch: Shader 8 finished CTA #0 (22237,0), 2 CTAs running
GPGPU-Sim uArch: core:  8, cta: 0 initialized @(22238,0)
GPGPU-Sim PTX: 12500000 instructions simulated : ctaid=(166,0,0) tid=(88,0,0)
GPGPU-Sim uArch: Shader 2 finished CTA #0 (22297,0), 2 CTAs running
GPGPU-Sim uArch: core:  2, cta: 0 initialized @(22298,0)
GPGPU-Sim uArch: Shader 11 finished CTA #0 (22341,0), 2 CTAs running
GPGPU-Sim uArch: core: 11, cta: 0 initialized @(22342,0)
GPGPU-Sim uArch: Shader 3 finished CTA #0 (22343,0), 2 CTAs running
GPGPU-Sim uArch: core:  3, cta: 0 initialized @(22344,0)
GPGPU-Sim PTX: 12600000 instructions simulated : ctaid=(154,0,0) tid=(433,0,0)
GPGPU-Sim uArch: cycles simulated: 22500  inst.: 12105415 (ipc=538.0) sim_rate=432336 (inst/sec) elapsed = 0:0:00:28 / Tue Jan 29 20:58:56 2019
GPGPU-Sim uArch: Shader 6 finished CTA #0 (22575,0), 2 CTAs running
GPGPU-Sim uArch: core:  6, cta: 0 initialized @(22576,0)
GPGPU-Sim PTX: 12700000 instructions simulated : ctaid=(159,0,0) tid=(354,0,0)
GPGPU-Sim uArch: Shader 9 finished CTA #0 (22640,0), 2 CTAs running
GPGPU-Sim uArch: core:  9, cta: 0 initialized @(22641,0)
GPGPU-Sim uArch: Shader 0 finished CTA #0 (22749,0), 2 CTAs running
GPGPU-Sim uArch: core:  0, cta: 0 initialized @(22750,0)
GPGPU-Sim uArch: Shader 10 finished CTA #0 (22764,0), 2 CTAs running
GPGPU-Sim uArch: core: 10, cta: 0 initialized @(22765,0)
GPGPU-Sim PTX: 12800000 instructions simulated : ctaid=(169,0,0) tid=(294,0,0)
GPGPU-Sim uArch: Shader 7 finished CTA #0 (22788,0), 2 CTAs running
GPGPU-Sim uArch: core:  7, cta: 0 initialized @(22789,0)
GPGPU-Sim uArch: Shader 12 finished CTA #0 (22898,0), 2 CTAs running
GPGPU-Sim uArch: core: 12, cta: 0 initialized @(22899,0)
GPGPU-Sim PTX: 12900000 instructions simulated : ctaid=(153,0,0) tid=(357,0,0)
GPGPU-Sim uArch: Shader 4 finished CTA #0 (22946,0), 2 CTAs running
GPGPU-Sim uArch: core:  4, cta: 0 initialized @(22947,0)
GPGPU-Sim uArch: Shader 13 finished CTA #0 (23025,0), 2 CTAs running
GPGPU-Sim uArch: core: 13, cta: 0 initialized @(23026,0)
GPGPU-Sim uArch: Shader 14 finished CTA #0 (23104,0), 2 CTAs running
GPGPU-Sim uArch: core: 14, cta: 0 initialized @(23105,0)
GPGPU-Sim PTX: 13000000 instructions simulated : ctaid=(188,0,0) tid=(268,0,0)
GPGPU-Sim PTX: 13100000 instructions simulated : ctaid=(193,0,0) tid=(378,0,0)
GPGPU-Sim PTX: 13200000 instructions simulated : ctaid=(156,0,0) tid=(93,0,0)
GPGPU-Sim uArch: cycles simulated: 23500  inst.: 12692585 (ipc=540.1) sim_rate=437675 (inst/sec) elapsed = 0:0:00:29 / Tue Jan 29 20:58:57 2019
GPGPU-Sim PTX: 13300000 instructions simulated : ctaid=(167,0,0) tid=(215,0,0)
GPGPU-Sim PTX: 13400000 instructions simulated : ctaid=(152,0,0) tid=(103,0,0)
GPGPU-Sim uArch: Shader 1 finished CTA #1 (23927,0), 2 CTAs running
GPGPU-Sim PTX: 13500000 instructions simulated : ctaid=(174,0,0) tid=(145,0,0)
GPGPU-Sim uArch: core:  1, cta: 1 initialized @(23928,0)
GPGPU-Sim uArch: cycles simulated: 24000  inst.: 12982077 (ipc=540.9) sim_rate=432735 (inst/sec) elapsed = 0:0:00:30 / Tue Jan 29 20:58:58 2019
GPGPU-Sim uArch: Shader 5 finished CTA #1 (24084,0), 2 CTAs running
GPGPU-Sim uArch: core:  5, cta: 1 initialized @(24085,0)
GPGPU-Sim PTX: 13600000 instructions simulated : ctaid=(156,0,0) tid=(357,0,0)
GPGPU-Sim PTX: 13700000 instructions simulated : ctaid=(156,0,0) tid=(19,0,0)
GPGPU-Sim uArch: Shader 2 finished CTA #1 (24262,0), 2 CTAs running
GPGPU-Sim uArch: core:  2, cta: 1 initialized @(24263,0)
GPGPU-Sim uArch: Shader 8 finished CTA #1 (24291,0), 2 CTAs running
GPGPU-Sim uArch: core:  8, cta: 1 initialized @(24292,0)
GPGPU-Sim uArch: Shader 3 finished CTA #1 (24399,0), 2 CTAs running
GPGPU-Sim uArch: core:  3, cta: 1 initialized @(24400,0)
GPGPU-Sim PTX: 13800000 instructions simulated : ctaid=(162,0,0) tid=(266,0,0)
GPGPU-Sim uArch: Shader 11 finished CTA #1 (24470,0), 2 CTAs running
GPGPU-Sim uArch: core: 11, cta: 1 initialized @(24471,0)
GPGPU-Sim uArch: cycles simulated: 24500  inst.: 13273810 (ipc=541.8) sim_rate=428187 (inst/sec) elapsed = 0:0:00:31 / Tue Jan 29 20:58:59 2019
GPGPU-Sim uArch: Shader 0 finished CTA #1 (24518,0), 2 CTAs running
GPGPU-Sim uArch: core:  0, cta: 1 initialized @(24519,0)
GPGPU-Sim uArch: Shader 6 finished CTA #1 (24533,0), 2 CTAs running
GPGPU-Sim uArch: core:  6, cta: 1 initialized @(24534,0)
GPGPU-Sim PTX: 13900000 instructions simulated : ctaid=(161,0,0) tid=(373,0,0)
GPGPU-Sim uArch: Shader 10 finished CTA #1 (24722,0), 2 CTAs running
GPGPU-Sim uArch: core: 10, cta: 1 initialized @(24723,0)
GPGPU-Sim uArch: Shader 9 finished CTA #1 (24732,0), 2 CTAs running
GPGPU-Sim uArch: core:  9, cta: 1 initialized @(24733,0)
GPGPU-Sim uArch: Shader 7 finished CTA #1 (24733,0), 2 CTAs running
GPGPU-Sim uArch: core:  7, cta: 1 initialized @(24734,0)
GPGPU-Sim PTX: 14000000 instructions simulated : ctaid=(183,0,0) tid=(128,0,0)
GPGPU-Sim uArch: Shader 4 finished CTA #1 (24848,0), 2 CTAs running
GPGPU-Sim uArch: core:  4, cta: 1 initialized @(24849,0)
GPGPU-Sim PTX: 14100000 instructions simulated : ctaid=(182,0,0) tid=(266,0,0)
GPGPU-Sim uArch: Shader 13 finished CTA #1 (25049,0), 2 CTAs running
GPGPU-Sim uArch: core: 13, cta: 1 initialized @(25050,0)
GPGPU-Sim uArch: Shader 14 finished CTA #1 (25050,0), 2 CTAs running
GPGPU-Sim uArch: core: 14, cta: 1 initialized @(25051,0)
GPGPU-Sim PTX: 14200000 instructions simulated : ctaid=(176,0,0) tid=(30,0,0)
GPGPU-Sim uArch: Shader 12 finished CTA #1 (25175,0), 2 CTAs running
GPGPU-Sim uArch: core: 12, cta: 1 initialized @(25176,0)
GPGPU-Sim PTX: 14300000 instructions simulated : ctaid=(191,0,0) tid=(344,0,0)
GPGPU-Sim PTX: 14400000 instructions simulated : ctaid=(165,0,0) tid=(77,0,0)
GPGPU-Sim uArch: cycles simulated: 25500  inst.: 13868120 (ipc=543.8) sim_rate=433378 (inst/sec) elapsed = 0:0:00:32 / Tue Jan 29 20:59:00 2019
GPGPU-Sim PTX: 14500000 instructions simulated : ctaid=(209,0,0) tid=(381,0,0)
GPGPU-Sim PTX: 14600000 instructions simulated : ctaid=(196,0,0) tid=(235,0,0)
GPGPU-Sim PTX: 14700000 instructions simulated : ctaid=(188,0,0) tid=(0,0,0)
GPGPU-Sim uArch: Shader 1 finished CTA #2 (25955,0), 2 CTAs running
GPGPU-Sim uArch: core:  1, cta: 2 initialized @(25956,0)
GPGPU-Sim uArch: cycles simulated: 26000  inst.: 14162643 (ipc=544.7) sim_rate=429171 (inst/sec) elapsed = 0:0:00:33 / Tue Jan 29 20:59:01 2019
GPGPU-Sim uArch: Shader 2 finished CTA #2 (26044,0), 2 CTAs running
GPGPU-Sim uArch: core:  2, cta: 2 initialized @(26045,0)
GPGPU-Sim PTX: 14800000 instructions simulated : ctaid=(182,0,0) tid=(470,0,0)
GPGPU-Sim uArch: Shader 5 finished CTA #2 (26191,0), 2 CTAs running
GPGPU-Sim uArch: core:  5, cta: 2 initialized @(26192,0)
GPGPU-Sim uArch: Shader 8 finished CTA #2 (26194,0), 2 CTAs running
GPGPU-Sim uArch: core:  8, cta: 2 initialized @(26195,0)
GPGPU-Sim uArch: Shader 11 finished CTA #2 (26231,0), 2 CTAs running
GPGPU-Sim uArch: core: 11, cta: 2 initialized @(26232,0)
GPGPU-Sim PTX: 14900000 instructions simulated : ctaid=(194,0,0) tid=(17,0,0)
GPGPU-Sim uArch: Shader 3 finished CTA #2 (26260,0), 2 CTAs running
GPGPU-Sim uArch: core:  3, cta: 2 initialized @(26261,0)
GPGPU-Sim uArch: Shader 7 finished CTA #2 (26287,0), 2 CTAs running
GPGPU-Sim uArch: core:  7, cta: 2 initialized @(26288,0)
GPGPU-Sim uArch: Shader 9 finished CTA #2 (26391,0), 2 CTAs running
GPGPU-Sim uArch: core:  9, cta: 2 initialized @(26392,0)
GPGPU-Sim PTX: 15000000 instructions simulated : ctaid=(212,0,0) tid=(345,0,0)
GPGPU-Sim uArch: Shader 6 finished CTA #2 (26423,0), 2 CTAs running
GPGPU-Sim uArch: core:  6, cta: 2 initialized @(26424,0)
GPGPU-Sim uArch: Shader 0 finished CTA #2 (26429,0), 2 CTAs running
GPGPU-Sim uArch: core:  0, cta: 2 initialized @(26430,0)
GPGPU-Sim uArch: cycles simulated: 26500  inst.: 14439115 (ipc=544.9) sim_rate=424679 (inst/sec) elapsed = 0:0:00:34 / Tue Jan 29 20:59:02 2019
GPGPU-Sim PTX: 15100000 instructions simulated : ctaid=(178,0,0) tid=(510,0,0)
GPGPU-Sim uArch: Shader 10 finished CTA #2 (26633,0), 2 CTAs running
GPGPU-Sim uArch: core: 10, cta: 2 initialized @(26634,0)
GPGPU-Sim uArch: Shader 12 finished CTA #2 (26662,0), 2 CTAs running
GPGPU-Sim uArch: core: 12, cta: 2 initialized @(26663,0)
GPGPU-Sim PTX: 15200000 instructions simulated : ctaid=(205,0,0) tid=(452,0,0)
GPGPU-Sim uArch: Shader 4 finished CTA #2 (26842,0), 2 CTAs running
GPGPU-Sim uArch: core:  4, cta: 2 initialized @(26843,0)
GPGPU-Sim uArch: Shader 14 finished CTA #2 (26870,0), 2 CTAs running
GPGPU-Sim uArch: core: 14, cta: 2 initialized @(26871,0)
GPGPU-Sim PTX: 15300000 instructions simulated : ctaid=(188,0,0) tid=(161,0,0)
GPGPU-Sim uArch: Shader 13 finished CTA #2 (26973,0), 2 CTAs running
GPGPU-Sim uArch: core: 13, cta: 2 initialized @(26974,0)
GPGPU-Sim PTX: 15400000 instructions simulated : ctaid=(212,0,0) tid=(377,0,0)
GPGPU-Sim PTX: 15500000 instructions simulated : ctaid=(216,0,0) tid=(118,0,0)
GPGPU-Sim PTX: 15600000 instructions simulated : ctaid=(224,0,0) tid=(507,0,0)
GPGPU-Sim PTX: 15700000 instructions simulated : ctaid=(180,0,0) tid=(376,0,0)
GPGPU-Sim uArch: cycles simulated: 27500  inst.: 15053893 (ipc=547.4) sim_rate=430111 (inst/sec) elapsed = 0:0:00:35 / Tue Jan 29 20:59:03 2019
GPGPU-Sim PTX: 15800000 instructions simulated : ctaid=(182,0,0) tid=(322,0,0)
GPGPU-Sim uArch: Shader 2 finished CTA #0 (27778,0), 2 CTAs running
GPGPU-Sim uArch: core:  2, cta: 0 initialized @(27779,0)
GPGPU-Sim uArch: Shader 1 finished CTA #0 (27787,0), 2 CTAs running
GPGPU-Sim uArch: core:  1, cta: 0 initialized @(27788,0)
GPGPU-Sim uArch: Shader 5 finished CTA #0 (27817,0), 2 CTAs running
GPGPU-Sim uArch: core:  5, cta: 0 initialized @(27818,0)
GPGPU-Sim PTX: 15900000 instructions simulated : ctaid=(227,0,0) tid=(186,0,0)
GPGPU-Sim uArch: Shader 8 finished CTA #0 (27905,0), 2 CTAs running
GPGPU-Sim uArch: core:  8, cta: 0 initialized @(27906,0)
GPGPU-Sim uArch: Shader 11 finished CTA #0 (27934,0), 2 CTAs running
GPGPU-Sim uArch: core: 11, cta: 0 initialized @(27935,0)
GPGPU-Sim PTX: 16000000 instructions simulated : ctaid=(215,0,0) tid=(408,0,0)
GPGPU-Sim uArch: cycles simulated: 28000  inst.: 15348178 (ipc=548.1) sim_rate=426338 (inst/sec) elapsed = 0:0:00:36 / Tue Jan 29 20:59:04 2019
GPGPU-Sim uArch: Shader 3 finished CTA #0 (28004,0), 2 CTAs running
GPGPU-Sim uArch: core:  3, cta: 0 initialized @(28005,0)
GPGPU-Sim PTX: 16100000 instructions simulated : ctaid=(192,0,0) tid=(106,0,0)
GPGPU-Sim uArch: Shader 6 finished CTA #0 (28202,0), 2 CTAs running
GPGPU-Sim uArch: core:  6, cta: 0 initialized @(28203,0)
GPGPU-Sim uArch: Shader 7 finished CTA #0 (28253,0), 2 CTAs running
GPGPU-Sim uArch: Shader 9 finished CTA #0 (28253,0), 2 CTAs running
GPGPU-Sim uArch: core:  7, cta: 0 initialized @(28254,0)
GPGPU-Sim uArch: core:  9, cta: 0 initialized @(28254,0)
GPGPU-Sim PTX: 16200000 instructions simulated : ctaid=(210,0,0) tid=(442,0,0)
GPGPU-Sim uArch: Shader 10 finished CTA #0 (28414,0), 2 CTAs running
GPGPU-Sim uArch: core: 10, cta: 0 initialized @(28415,0)
GPGPU-Sim uArch: Shader 0 finished CTA #0 (28478,0), 2 CTAs running
GPGPU-Sim uArch: core:  0, cta: 0 initialized @(28479,0)
GPGPU-Sim PTX: 16300000 instructions simulated : ctaid=(196,0,0) tid=(71,0,0)
GPGPU-Sim uArch: cycles simulated: 28500  inst.: 15637195 (ipc=548.7) sim_rate=422626 (inst/sec) elapsed = 0:0:00:37 / Tue Jan 29 20:59:05 2019
GPGPU-Sim uArch: Shader 12 finished CTA #0 (28571,0), 2 CTAs running
GPGPU-Sim uArch: core: 12, cta: 0 initialized @(28572,0)
GPGPU-Sim PTX: 16400000 instructions simulated : ctaid=(202,0,0) tid=(367,0,0)
GPGPU-Sim uArch: Shader 14 finished CTA #0 (28751,0), 2 CTAs running
GPGPU-Sim uArch: core: 14, cta: 0 initialized @(28752,0)
GPGPU-Sim uArch: Shader 13 finished CTA #0 (28780,0), 2 CTAs running
GPGPU-Sim uArch: core: 13, cta: 0 initialized @(28781,0)
GPGPU-Sim PTX: 16500000 instructions simulated : ctaid=(223,0,0) tid=(386,0,0)
GPGPU-Sim uArch: Shader 4 finished CTA #0 (28878,0), 2 CTAs running
GPGPU-Sim uArch: core:  4, cta: 0 initialized @(28879,0)
GPGPU-Sim PTX: 16600000 instructions simulated : ctaid=(215,0,0) tid=(142,0,0)
GPGPU-Sim PTX: 16700000 instructions simulated : ctaid=(198,0,0) tid=(286,0,0)
GPGPU-Sim PTX: 16800000 instructions simulated : ctaid=(197,0,0) tid=(428,0,0)
GPGPU-Sim PTX: 16900000 instructions simulated : ctaid=(218,0,0) tid=(356,0,0)
GPGPU-Sim uArch: cycles simulated: 29500  inst.: 16233170 (ipc=550.3) sim_rate=427188 (inst/sec) elapsed = 0:0:00:38 / Tue Jan 29 20:59:06 2019
GPGPU-Sim PTX: 17000000 instructions simulated : ctaid=(199,0,0) tid=(226,0,0)
GPGPU-Sim uArch: Shader 1 finished CTA #1 (29653,0), 2 CTAs running
GPGPU-Sim uArch: core:  1, cta: 1 initialized @(29654,0)
GPGPU-Sim uArch: Shader 5 finished CTA #1 (29732,0), 2 CTAs running
GPGPU-Sim uArch: core:  5, cta: 1 initialized @(29733,0)
GPGPU-Sim PTX: 17100000 instructions simulated : ctaid=(208,0,0) tid=(432,0,0)
GPGPU-Sim uArch: Shader 2 finished CTA #1 (29884,0), 2 CTAs running
GPGPU-Sim uArch: core:  2, cta: 1 initialized @(29885,0)
GPGPU-Sim uArch: Shader 8 finished CTA #1 (29906,0), 2 CTAs running
GPGPU-Sim uArch: core:  8, cta: 1 initialized @(29907,0)
GPGPU-Sim uArch: Shader 11 finished CTA #1 (29929,0), 2 CTAs running
GPGPU-Sim uArch: core: 11, cta: 1 initialized @(29930,0)
GPGPU-Sim uArch: Shader 3 finished CTA #1 (29937,0), 2 CTAs running
GPGPU-Sim uArch: core:  3, cta: 1 initialized @(29938,0)
GPGPU-Sim PTX: 17200000 instructions simulated : ctaid=(202,0,0) tid=(226,0,0)
GPGPU-Sim uArch: cycles simulated: 30000  inst.: 16515871 (ipc=550.5) sim_rate=423483 (inst/sec) elapsed = 0:0:00:39 / Tue Jan 29 20:59:07 2019
GPGPU-Sim PTX: 17300000 instructions simulated : ctaid=(243,0,0) tid=(76,0,0)
GPGPU-Sim uArch: Shader 6 finished CTA #1 (30247,0), 2 CTAs running
GPGPU-Sim uArch: core:  6, cta: 1 initialized @(30248,0)
GPGPU-Sim uArch: Shader 0 finished CTA #1 (30257,0), 2 CTAs running
GPGPU-Sim uArch: core:  0, cta: 1 initialized @(30258,0)
GPGPU-Sim uArch: Shader 10 finished CTA #1 (30291,0), 2 CTAs running
GPGPU-Sim uArch: core: 10, cta: 1 initialized @(30292,0)
GPGPU-Sim PTX: 17400000 instructions simulated : ctaid=(245,0,0) tid=(116,0,0)
GPGPU-Sim uArch: Shader 7 finished CTA #1 (30359,0), 2 CTAs running
GPGPU-Sim uArch: core:  7, cta: 1 initialized @(30360,0)
GPGPU-Sim uArch: Shader 9 finished CTA #1 (30376,0), 2 CTAs running
GPGPU-Sim uArch: core:  9, cta: 1 initialized @(30377,0)
GPGPU-Sim PTX: 17500000 instructions simulated : ctaid=(234,0,0) tid=(1,0,0)
GPGPU-Sim uArch: cycles simulated: 30500  inst.: 16794016 (ipc=550.6) sim_rate=419850 (inst/sec) elapsed = 0:0:00:40 / Tue Jan 29 20:59:08 2019
GPGPU-Sim uArch: Shader 4 finished CTA #1 (30637,0), 2 CTAs running
GPGPU-Sim uArch: core:  4, cta: 1 initialized @(30638,0)
GPGPU-Sim PTX: 17600000 instructions simulated : ctaid=(216,0,0) tid=(362,0,0)
GPGPU-Sim uArch: Shader 13 finished CTA #1 (30756,0), 2 CTAs running
GPGPU-Sim uArch: core: 13, cta: 1 initialized @(30757,0)
GPGPU-Sim uArch: Shader 14 finished CTA #1 (30770,0), 2 CTAs running
GPGPU-Sim uArch: core: 14, cta: 1 initialized @(30771,0)
GPGPU-Sim PTX: 17700000 instructions simulated : ctaid=(222,0,0) tid=(450,0,0)
GPGPU-Sim uArch: Shader 12 finished CTA #1 (30809,0), 2 CTAs running
GPGPU-Sim uArch: core: 12, cta: 1 initialized @(30810,0)
GPGPU-Sim PTX: 17800000 instructions simulated : ctaid=(210,0,0) tid=(359,0,0)
GPGPU-Sim PTX: 17900000 instructions simulated : ctaid=(246,0,0) tid=(354,0,0)
GPGPU-Sim PTX: 18000000 instructions simulated : ctaid=(232,0,0) tid=(192,0,0)
GPGPU-Sim PTX: 18100000 instructions simulated : ctaid=(248,0,0) tid=(382,0,0)
GPGPU-Sim uArch: cycles simulated: 31500  inst.: 17395172 (ipc=552.2) sim_rate=424272 (inst/sec) elapsed = 0:0:00:41 / Tue Jan 29 20:59:09 2019
GPGPU-Sim uArch: Shader 2 finished CTA #2 (31580,0), 2 CTAs running
GPGPU-Sim uArch: core:  2, cta: 2 initialized @(31581,0)
GPGPU-Sim PTX: 18200000 instructions simulated : ctaid=(224,0,0) tid=(359,0,0)
GPGPU-Sim uArch: Shader 1 finished CTA #2 (31722,0), 2 CTAs running
GPGPU-Sim uArch: core:  1, cta: 2 initialized @(31723,0)
GPGPU-Sim PTX: 18300000 instructions simulated : ctaid=(219,0,0) tid=(260,0,0)
GPGPU-Sim uArch: Shader 5 finished CTA #2 (31797,0), 2 CTAs running
GPGPU-Sim uArch: core:  5, cta: 2 initialized @(31798,0)
GPGPU-Sim uArch: Shader 8 finished CTA #2 (31870,0), 2 CTAs running
GPGPU-Sim uArch: core:  8, cta: 2 initialized @(31871,0)
GPGPU-Sim uArch: Shader 9 finished CTA #2 (31889,0), 2 CTAs running
GPGPU-Sim uArch: core:  9, cta: 2 initialized @(31890,0)
GPGPU-Sim PTX: 18400000 instructions simulated : ctaid=(237,0,0) tid=(310,0,0)
GPGPU-Sim uArch: cycles simulated: 32000  inst.: 17688545 (ipc=552.8) sim_rate=421155 (inst/sec) elapsed = 0:0:00:42 / Tue Jan 29 20:59:10 2019
GPGPU-Sim uArch: Shader 7 finished CTA #2 (32057,0), 2 CTAs running
GPGPU-Sim uArch: core:  7, cta: 2 initialized @(32058,0)
GPGPU-Sim uArch: Shader 11 finished CTA #2 (32062,0), 2 CTAs running
GPGPU-Sim uArch: core: 11, cta: 2 initialized @(32063,0)
GPGPU-Sim uArch: Shader 3 finished CTA #2 (32076,0), 2 CTAs running
GPGPU-Sim uArch: core:  3, cta: 2 initialized @(32077,0)
GPGPU-Sim PTX: 18500000 instructions simulated : ctaid=(260,0,0) tid=(425,0,0)
GPGPU-Sim uArch: Shader 6 finished CTA #2 (32103,0), 2 CTAs running
GPGPU-Sim uArch: core:  6, cta: 2 initialized @(32104,0)
GPGPU-Sim uArch: Shader 0 finished CTA #2 (32128,0), 2 CTAs running
GPGPU-Sim uArch: core:  0, cta: 2 initialized @(32129,0)
GPGPU-Sim uArch: Shader 10 finished CTA #2 (32155,0), 2 CTAs running
GPGPU-Sim uArch: core: 10, cta: 2 initialized @(32156,0)
GPGPU-Sim PTX: 18600000 instructions simulated : ctaid=(263,0,0) tid=(113,0,0)
GPGPU-Sim uArch: Shader 12 finished CTA #2 (32384,0), 2 CTAs running
GPGPU-Sim uArch: core: 12, cta: 2 initialized @(32385,0)
GPGPU-Sim PTX: 18700000 instructions simulated : ctaid=(229,0,0) tid=(461,0,0)
GPGPU-Sim uArch: Shader 4 finished CTA #2 (32416,0), 2 CTAs running
GPGPU-Sim uArch: core:  4, cta: 2 initialized @(32417,0)
GPGPU-Sim uArch: cycles simulated: 32500  inst.: 17981549 (ipc=553.3) sim_rate=418175 (inst/sec) elapsed = 0:0:00:43 / Tue Jan 29 20:59:11 2019
GPGPU-Sim PTX: 18800000 instructions simulated : ctaid=(237,0,0) tid=(419,0,0)
GPGPU-Sim uArch: Shader 14 finished CTA #2 (32627,0), 2 CTAs running
GPGPU-Sim uArch: core: 14, cta: 2 initialized @(32628,0)
GPGPU-Sim uArch: Shader 13 finished CTA #2 (32636,0), 2 CTAs running
GPGPU-Sim uArch: core: 13, cta: 2 initialized @(32637,0)
GPGPU-Sim PTX: 18900000 instructions simulated : ctaid=(232,0,0) tid=(172,0,0)
GPGPU-Sim PTX: 19000000 instructions simulated : ctaid=(262,0,0) tid=(63,0,0)
GPGPU-Sim PTX: 19100000 instructions simulated : ctaid=(258,0,0) tid=(374,0,0)
GPGPU-Sim PTX: 19200000 instructions simulated : ctaid=(238,0,0) tid=(248,0,0)
GPGPU-Sim PTX: 19300000 instructions simulated : ctaid=(254,0,0) tid=(197,0,0)
GPGPU-Sim uArch: Shader 2 finished CTA #0 (33467,0), 2 CTAs running
GPGPU-Sim uArch: core:  2, cta: 0 initialized @(33468,0)
GPGPU-Sim uArch: cycles simulated: 33500  inst.: 18579516 (ipc=554.6) sim_rate=422261 (inst/sec) elapsed = 0:0:00:44 / Tue Jan 29 20:59:12 2019
GPGPU-Sim uArch: Shader 1 finished CTA #0 (33530,0), 2 CTAs running
GPGPU-Sim uArch: core:  1, cta: 0 initialized @(33531,0)
GPGPU-Sim PTX: 19400000 instructions simulated : ctaid=(266,0,0) tid=(356,0,0)
GPGPU-Sim uArch: Shader 5 finished CTA #0 (33628,0), 2 CTAs running
GPGPU-Sim uArch: core:  5, cta: 0 initialized @(33629,0)
GPGPU-Sim uArch: Shader 8 finished CTA #0 (33660,0), 2 CTAs running
GPGPU-Sim uArch: core:  8, cta: 0 initialized @(33661,0)
GPGPU-Sim uArch: Shader 11 finished CTA #0 (33708,0), 2 CTAs running
GPGPU-Sim uArch: core: 11, cta: 0 initialized @(33709,0)
GPGPU-Sim PTX: 19500000 instructions simulated : ctaid=(250,0,0) tid=(66,0,0)
GPGPU-Sim uArch: Shader 3 finished CTA #0 (33729,0), 2 CTAs running
GPGPU-Sim uArch: core:  3, cta: 0 initialized @(33730,0)
GPGPU-Sim uArch: Shader 9 finished CTA #0 (33796,0), 2 CTAs running
GPGPU-Sim uArch: core:  9, cta: 0 initialized @(33797,0)
GPGPU-Sim PTX: 19600000 instructions simulated : ctaid=(254,0,0) tid=(101,0,0)
GPGPU-Sim uArch: Shader 6 finished CTA #0 (33912,0), 2 CTAs running
GPGPU-Sim uArch: core:  6, cta: 0 initialized @(33913,0)
GPGPU-Sim uArch: cycles simulated: 34000  inst.: 18871826 (ipc=555.1) sim_rate=419373 (inst/sec) elapsed = 0:0:00:45 / Tue Jan 29 20:59:13 2019
GPGPU-Sim PTX: 19700000 instructions simulated : ctaid=(258,0,0) tid=(192,0,0)
GPGPU-Sim uArch: Shader 0 finished CTA #0 (34125,0), 2 CTAs running
GPGPU-Sim uArch: core:  0, cta: 0 initialized @(34126,0)
GPGPU-Sim uArch: Shader 7 finished CTA #0 (34156,0), 2 CTAs running
GPGPU-Sim uArch: core:  7, cta: 0 initialized @(34157,0)
GPGPU-Sim uArch: Shader 10 finished CTA #0 (34175,0), 2 CTAs running
GPGPU-Sim uArch: core: 10, cta: 0 initialized @(34176,0)
GPGPU-Sim PTX: 19800000 instructions simulated : ctaid=(252,0,0) tid=(221,0,0)
GPGPU-Sim uArch: Shader 14 finished CTA #0 (34295,0), 2 CTAs running
GPGPU-Sim uArch: core: 14, cta: 0 initialized @(34296,0)
GPGPU-Sim uArch: Shader 13 finished CTA #0 (34336,0), 2 CTAs running
GPGPU-Sim uArch: core: 13, cta: 0 initialized @(34337,0)
GPGPU-Sim PTX: 19900000 instructions simulated : ctaid=(282,0,0) tid=(158,0,0)
GPGPU-Sim uArch: Shader 12 finished CTA #0 (34366,0), 2 CTAs running
GPGPU-Sim uArch: core: 12, cta: 0 initialized @(34367,0)
GPGPU-Sim uArch: Shader 4 finished CTA #0 (34430,0), 2 CTAs running
GPGPU-Sim uArch: core:  4, cta: 0 initialized @(34431,0)
GPGPU-Sim uArch: cycles simulated: 34500  inst.: 19172534 (ipc=555.7) sim_rate=416794 (inst/sec) elapsed = 0:0:00:46 / Tue Jan 29 20:59:14 2019
GPGPU-Sim PTX: 20000000 instructions simulated : ctaid=(242,0,0) tid=(449,0,0)
GPGPU-Sim PTX: 20100000 instructions simulated : ctaid=(260,0,0) tid=(263,0,0)
GPGPU-Sim PTX: 20200000 instructions simulated : ctaid=(263,0,0) tid=(186,0,0)
GPGPU-Sim PTX: 20300000 instructions simulated : ctaid=(272,0,0) tid=(62,0,0)
GPGPU-Sim PTX: 20400000 instructions simulated : ctaid=(274,0,0) tid=(491,0,0)
GPGPU-Sim PTX: 20500000 instructions simulated : ctaid=(249,0,0) tid=(464,0,0)
GPGPU-Sim uArch: Shader 1 finished CTA #1 (35341,0), 2 CTAs running
GPGPU-Sim uArch: core:  1, cta: 1 initialized @(35342,0)
GPGPU-Sim uArch: Shader 5 finished CTA #1 (35389,0), 2 CTAs running
GPGPU-Sim uArch: core:  5, cta: 1 initialized @(35390,0)
GPGPU-Sim uArch: Shader 8 finished CTA #1 (35446,0), 2 CTAs running
GPGPU-Sim uArch: core:  8, cta: 1 initialized @(35447,0)
GPGPU-Sim uArch: cycles simulated: 35500  inst.: 19757670 (ipc=556.6) sim_rate=420375 (inst/sec) elapsed = 0:0:00:47 / Tue Jan 29 20:59:15 2019
GPGPU-Sim PTX: 20600000 instructions simulated : ctaid=(250,0,0) tid=(60,0,0)
GPGPU-Sim uArch: Shader 3 finished CTA #1 (35560,0), 2 CTAs running
GPGPU-Sim uArch: core:  3, cta: 1 initialized @(35561,0)
GPGPU-Sim uArch: Shader 2 finished CTA #1 (35599,0), 2 CTAs running
GPGPU-Sim uArch: core:  2, cta: 1 initialized @(35600,0)
GPGPU-Sim uArch: Shader 11 finished CTA #1 (35601,0), 2 CTAs running
GPGPU-Sim uArch: core: 11, cta: 1 initialized @(35602,0)
GPGPU-Sim PTX: 20700000 instructions simulated : ctaid=(251,0,0) tid=(43,0,0)
GPGPU-Sim PTX: 20800000 instructions simulated : ctaid=(272,0,0) tid=(114,0,0)
GPGPU-Sim uArch: Shader 7 finished CTA #1 (35960,0), 2 CTAs running
GPGPU-Sim uArch: core:  7, cta: 1 initialized @(35961,0)
GPGPU-Sim uArch: cycles simulated: 36000  inst.: 20044329 (ipc=556.8) sim_rate=417590 (inst/sec) elapsed = 0:0:00:48 / Tue Jan 29 20:59:16 2019
GPGPU-Sim PTX: 20900000 instructions simulated : ctaid=(275,0,0) tid=(194,0,0)
GPGPU-Sim uArch: Shader 6 finished CTA #1 (36008,0), 2 CTAs running
GPGPU-Sim uArch: core:  6, cta: 1 initialized @(36009,0)
GPGPU-Sim uArch: Shader 10 finished CTA #1 (36026,0), 2 CTAs running
GPGPU-Sim uArch: core: 10, cta: 1 initialized @(36027,0)
GPGPU-Sim uArch: Shader 0 finished CTA #1 (36095,0), 2 CTAs running
GPGPU-Sim uArch: core:  0, cta: 1 initialized @(36096,0)
GPGPU-Sim uArch: Shader 9 finished CTA #1 (36101,0), 2 CTAs running
GPGPU-Sim uArch: core:  9, cta: 1 initialized @(36102,0)
GPGPU-Sim PTX: 21000000 instructions simulated : ctaid=(275,0,0) tid=(425,0,0)
GPGPU-Sim uArch: Shader 4 finished CTA #1 (36233,0), 2 CTAs running
GPGPU-Sim uArch: core:  4, cta: 1 initialized @(36234,0)
GPGPU-Sim uArch: Shader 13 finished CTA #1 (36291,0), 2 CTAs running
GPGPU-Sim uArch: core: 13, cta: 1 initialized @(36292,0)
GPGPU-Sim PTX: 21100000 instructions simulated : ctaid=(274,0,0) tid=(210,0,0)
GPGPU-Sim uArch: Shader 12 finished CTA #1 (36338,0), 2 CTAs running
GPGPU-Sim uArch: core: 12, cta: 1 initialized @(36339,0)
GPGPU-Sim uArch: Shader 14 finished CTA #1 (36339,0), 2 CTAs running
GPGPU-Sim uArch: core: 14, cta: 1 initialized @(36340,0)
GPGPU-Sim PTX: 21200000 instructions simulated : ctaid=(295,0,0) tid=(500,0,0)
GPGPU-Sim uArch: cycles simulated: 36500  inst.: 20346167 (ipc=557.4) sim_rate=415227 (inst/sec) elapsed = 0:0:00:49 / Tue Jan 29 20:59:17 2019
GPGPU-Sim PTX: 21300000 instructions simulated : ctaid=(298,0,0) tid=(22,0,0)
GPGPU-Sim PTX: 21400000 instructions simulated : ctaid=(291,0,0) tid=(228,0,0)
GPGPU-Sim PTX: 21500000 instructions simulated : ctaid=(257,0,0) tid=(328,0,0)
GPGPU-Sim PTX: 21600000 instructions simulated : ctaid=(290,0,0) tid=(467,0,0)
GPGPU-Sim PTX: 21700000 instructions simulated : ctaid=(264,0,0) tid=(477,0,0)
[...]
gpgpu_stall_shd_mem[g_mem_st][wb_rsrv_fail] = 0
gpgpu_stall_shd_mem[l_mem_ld][mshr_rc] = 0
gpgpu_stall_shd_mem[l_mem_ld][icnt_rc] = 0
gpgpu_stall_shd_mem[l_mem_ld][wb_icnt_rc] = 0
gpgpu_stall_shd_mem[l_mem_ld][wb_rsrv_fail] = 0
gpgpu_stall_shd_mem[l_mem_st][mshr_rc] = 0
gpgpu_stall_shd_mem[l_mem_st][icnt_rc] = 0
gpgpu_stall_shd_mem[l_mem_ld][wb_icnt_rc] = 0
gpgpu_stall_shd_mem[l_mem_ld][wb_rsrv_fail] = 0
gpu_reg_bank_conflict_stalls = 0
Warp Occupancy Distribution:
Stall:147703	W0_Idle:47130	W0_Scoreboard:295805	W1:363444	W2:187584	W3:0	W4:187584	W5:0	W6:0	W7:0	W8:187584	W9:0	W10:0	W11:0	W12:0	W13:0	W14:0	W15:0	W16:187584	W17:0	W18:0	W19:0	W20:0	W21:0	W22:0	W23:0	W24:0	W25:0	W26:0	W27:0	W28:0	W29:0	W30:0	W31:0	W32:2172778
traffic_breakdown_coretomem[CONST_ACC_R] = 120 {8:15,}
traffic_breakdown_coretomem[GLOBAL_ACC_R] = 250000 {8:31250,}
traffic_breakdown_coretomem[GLOBAL_ACC_W] = 625280 {40:15632,}
traffic_breakdown_coretomem[INST_ACC_R] = 600 {8:75,}
traffic_breakdown_memtocore[CONST_ACC_R] = 1080 {72:15,}
traffic_breakdown_memtocore[GLOBAL_ACC_R] = 4250000 {136:31250,}
traffic_breakdown_memtocore[GLOBAL_ACC_W] = 125056 {8:15632,}
traffic_breakdown_memtocore[INST_ACC_R] = 10200 {136:75,}
maxmrqlatency = 218 
maxdqlatency = 0 
maxmflatency = 929 
averagemflatency = 244 
max_icnt2mem_latency = 637 
max_icnt2sh_latency = 127055 
mrq_lat_table:28744 	1100 	429 	378 	414 	197 	148 	24 	0 	0 	0 	0 	0 	0 	0 	0 	0 	0 	0 	0 	0 	0 	0 	0 	0 	0 	0 	0 	0 	0 	0 	0 	
dq_lat_table:0 	0 	0 	0 	0 	0 	0 	0 	0 	0 	0 	0 	0 	0 	0 	0 	0 	0 	0 	0 	0 	0 	0 	0 	0 	0 	0 	0 	0 	0 	0 	0 	
mf_lat_table:0 	0 	0 	0 	0 	0 	0 	14058 	32156 	683 	0 	0 	0 	0 	0 	0 	0 	0 	0 	0 	0 	0 	0 	0 	0 	0 	0 	0 	0 	0 	0 	0 	
icnt2mem_lat_table:0 	0 	0 	34146 	5433 	3987 	2222 	694 	419 	71 	0 	0 	0 	0 	0 	0 	0 	0 	0 	0 	0 	0 	0 	0 	
icnt2sh_lat_table:0 	0 	0 	23173 	6965 	999 	128 	0 	0 	0 	0 	0 	496 	944 	2160 	4080 	7952 	0 	0 	0 	0 	0 	0 	0 	
mf_lat_pw_table:0 	0 	0 	0 	0 	0 	0 	197 	49 	1 	0 	0 	0 	0 	0 	0 	0 	0 	0 	0 	0 	0 	0 	0 	0 	0 	0 	0 	0 	0 	0 	0 	
maximum concurrent accesses to same row:
dram[0]:        32        32        32        32        32        32        32        32        32        32        32        32        32        32        32        32 
dram[1]:        32        32        32        32        32        32        32        32        32        32        32        32        32        32        32        32 
dram[2]:        32        32        32        32        32        32        32        32        32        32        32        32        32        32        32        32 
dram[3]:        32        32        32        32        32        32        32        32        32        32        32        32        32        32        32        32 
dram[4]:        32        32        32        32        32        32        32        32        32        32        32        32        32        32        32        32 
dram[5]:        32        32        32        32        32        32        32        32        32        32        32        32        32        32        32        32 
maximum service time to same row:
dram[0]:     12640     12666     12631     12616     13391     13584     12697     12502     12696     12517     14057     13978     15728     15861     12730     12601 
dram[1]:     12678     12646     12646     12669     13395     13647     12669     12714     12698     12686     14059     14039     15716     15918     12753     12529 
dram[2]:     12749     12607     12612     12574     13458     13630     12672     12620     12713     12701     14084     14035     15836     15911     12775     12625 
dram[3]:     12797     12638     12641     12618     13397     13621     12759     12631     12682     12718     14131     14043     15866     15975     12819     12574 
dram[4]:     12688     12647     12568     12647     13525     13614     12753     12602     12606     12674     13937     14035     15842     15996     12573     12503 
dram[5]:     12710     12682     12598     12626     13543     13615     12637     12574     12501     12568     13936     14064     15860     16043     12664     12544 
average row accesses per activate:
dram[0]: 24.846153 32.000000 32.000000 32.000000 30.000000 30.000000 32.000000 32.000000 26.076923 25.692308 32.000000 32.000000 32.000000 32.000000 32.000000 32.000000 
dram[1]: 29.272728 32.000000 32.000000 32.000000 30.000000 30.000000 32.000000 32.000000 20.875000 22.266666 32.000000 32.000000 32.000000 32.000000 32.000000 32.000000 
dram[2]: 29.181818 32.000000 32.000000 32.000000 30.000000 30.181818 32.000000 32.000000 22.266666 27.750000 32.000000 32.000000 32.000000 32.000000 32.000000 32.000000 
dram[3]: 32.000000 32.000000 32.000000 32.000000 30.000000 30.181818 32.000000 32.000000 25.692308 26.307692 32.000000 32.000000 32.000000 32.000000 32.000000 32.000000 
dram[4]: 32.000000 32.000000 32.000000 32.000000 30.000000 30.181818 32.000000 32.000000 20.875000 20.117647 32.000000 32.000000 32.000000 32.000000 32.000000 32.000000 
dram[5]: 32.000000 32.000000 32.000000 32.000000 30.000000 30.181818 32.000000 32.000000 22.266666 22.799999 32.000000 32.000000 32.000000 32.000000 32.000000 32.000000 
average row locality = 31434/1042 = 30.166986
number of total memory accesses made:
dram[0]:         0         0         0         0         0         0         0         0         0         0         0         0         0         0         0         0 
dram[1]:         0         0         0         0         0         0         0         0         0         0         0         0         0         0         0         0 
dram[2]:         0         0         0         0         0         0         0         0         0         0         0         0         0         0         0         0 
dram[3]:         0         0         0         0         0         0         0         0         0         0         0         0         0         0         0         0 
dram[4]:         0         0         0         0         0         0         0         0         0         0         0         0         0         0         0         0 
dram[5]:         0         0         0         0         0         0         0         0         0         0         0         0         0         0         0         0 
total accesses: 0
min_bank_accesses = 0!
min_chip_accesses = 0!
number of total read accesses:
dram[0]:       323       320       320       320       330       330       352       352       325       324       320       320       320       320       320       320 
dram[1]:       322       320       320       320       330       330       352       352       324       324       320       320       320       320       320       320 
dram[2]:       321       320       320       320       330       332       352       352       324       324       320       320       320       320       320       320 
dram[3]:       320       320       320       320       330       332       352       352       324       324       320       320       320       320       320       320 
dram[4]:       320       320       320       320       330       332       352       352       324       324       320       320       320       320       320       320 
dram[5]:       320       320       320       320       330       332       352       352       324       324       320       320       320       320       320       320 
total reads: 31287
bank skew: 352/320 = 1.10
chip skew: 5216/5214 = 1.00
number of total write accesses:
dram[0]:         0         0         0         0         0         0         0         0        14        10         0         0         0         0         0         0 
dram[1]:         0         0         0         0         0         0         0         0        10        10         0         0         0         0         0         0 
dram[2]:         0         0         0         0         0         0         0         0        10         9         0         0         0         0         0         0 
dram[3]:         0         0         0         0         0         0         0         0        10        18         0         0         0         0         0         0 
dram[4]:         0         0         0         0         0         0         0         0        10        18         0         0         0         0         0         0 
dram[5]:         0         0         0         0         0         0         0         0        10        18         0         0         0         0         0         0 
total reads: 147
min_bank_accesses = 0!
chip skew: 28/19 = 1.47
average mf latency per bank:
dram[0]:        290       274       262       263       265       265       276       282       921       820       274       276       277       279       277       274
dram[1]:        278       277       262       262       265       265       280       279       834       789       280       279       278       280       276       278
dram[2]:        278       284       262       262       266       267       278       284       814       776       277       284       278       280       274       275
dram[3]:        275       281       262       262       268       266       281       280       769      1664       276       278       280       277       274       280
dram[4]:        276       276       262       262       265       267       287       283       827      1335       283       281       281       279       273       279
dram[5]:        276       277       263       263       264       266       279       281       827      1267       276       280       282       279       275       278
maximum mf latency per bank:
dram[0]:        929       637       306       292       471       390       594       562       588       530       581       560       682       701       906       876
dram[1]:        877       922       312       305       493       369       646       655       622       492       638       575       701       673       846       775
dram[2]:        772       856       309       295       491       428       645       587       639       583       598       693       705       779       705       660
dram[3]:        736       824       313       304       545       495       637       687       583       798       501       547       715       668       623       868
dram[4]:        884       814       288       304       432       439       690       625       691       436       675       557       732       711       691       835
dram[5]:        745       726       290       373       388       438       683       671       657       468       533       559       741       614       875       907
Memory Partition 0: 
Cache L2_bank_000:
MSHR contents

Cache L2_bank_001:
MSHR contents

In Dram Latency Queue (total = 0): 
DRAM[0]: 16 bks, busW=4 BL=8 CL=12, tRRD=2 tCCD=6, tRCD=12 tRAS=28 tRP=12 tRC=40
n_cmd=167713 n_nop=156923 n_act=173 n_pre=157 n_req=5240 n_rd=10432 n_write=28 bw_util=0.1247
n_activity=63972 dram_eff=0.327
bk0: 646a 165961i bk1: 640a 165851i bk2: 640a 166025i bk3: 640a 165868i bk4: 660a 165857i bk5: 660a 165780i bk6: 704a 165656i bk7: 704a 165364i bk8: 650a 165723i bk9: 648a 165739i bk10: 640a 165763i bk11: 640a 165363i bk12: 640a 165660i bk13: 640a 165435i bk14: 640a 165962i bk15: 640a 165840i 
dram_util_bins: 0 0 0 0 0 0 0 0 0 0
dram_eff_bins: 0 0 0 0 0 0 0 0 0 0
mrqq: max=16 avg=0.0472712
Memory Partition 1: 
Cache L2_bank_002:
MSHR contents

Cache L2_bank_003:
MSHR contents

In Dram Latency Queue (total = 0): 
DRAM[1]: 16 bks, busW=4 BL=8 CL=12, tRRD=2 tCCD=6, tRCD=12 tRAS=28 tRP=12 tRC=40
n_cmd=167713 n_nop=156925 n_act=176 n_pre=160 n_req=5234 n_rd=10428 n_write=24 bw_util=0.1246
n_activity=64603 dram_eff=0.3236
bk0: 644a 165986i bk1: 640a 165864i bk2: 640a 166007i bk3: 640a 165922i bk4: 660a 165894i bk5: 660a 165802i bk6: 704a 165754i bk7: 704a 165466i bk8: 648a 165666i bk9: 648a 165514i bk10: 640a 165513i bk11: 640a 165342i bk12: 640a 165726i bk13: 640a 165365i bk14: 640a 165963i bk15: 640a 165831i 
dram_util_bins: 0 0 0 0 0 0 0 0 0 0
dram_eff_bins: 0 0 0 0 0 0 0 0 0 0
mrqq: max=16 avg=0.047784
Memory Partition 2: 
Cache L2_bank_004:
MSHR contents

Cache L2_bank_005:
MSHR contents

In Dram Latency Queue (total = 0): 
DRAM[2]: 16 bks, busW=4 BL=8 CL=12, tRRD=2 tCCD=6, tRCD=12 tRAS=28 tRP=12 tRC=40
n_cmd=167713 n_nop=156933 n_act=172 n_pre=156 n_req=5234 n_rd=10430 n_write=22 bw_util=0.1246
n_activity=63860 dram_eff=0.3273
bk0: 642a 165991i bk1: 640a 165868i bk2: 640a 166041i bk3: 640a 165879i bk4: 660a 165905i bk5: 664a 165731i bk6: 704a 165668i bk7: 704a 165313i bk8: 648a 165716i bk9: 648a 165514i bk10: 640a 165572i bk11: 640a 165335i bk12: 640a 165484i bk13: 640a 165566i bk14: 640a 165972i bk15: 640a 165771i 
dram_util_bins: 0 0 0 0 0 0 0 0 0 0
dram_eff_bins: 0 0 0 0 0 0 0 0 0 0
mrqq: max=16 avg=0.0693327
Memory Partition 3: 
Cache L2_bank_006:
MSHR contents

Cache L2_bank_007:
MSHR contents

In Dram Latency Queue (total = 0): 
DRAM[3]: 16 bks, busW=4 BL=8 CL=12, tRRD=2 tCCD=6, tRCD=12 tRAS=28 tRP=12 tRC=40
n_cmd=167713 n_nop=156929 n_act=170 n_pre=154 n_req=5242 n_rd=10428 n_write=32 bw_util=0.1247
n_activity=64619 dram_eff=0.3237
bk0: 640a 166046i bk1: 640a 165886i bk2: 640a 166066i bk3: 640a 165895i bk4: 660a 165907i bk5: 664a 165768i bk6: 704a 165717i bk7: 704a 165414i bk8: 648a 165789i bk9: 648a 165629i bk10: 640a 165686i bk11: 640a 165313i bk12: 640a 165741i bk13: 640a 165585i bk14: 640a 165973i bk15: 640a 165784i 
dram_util_bins: 0 0 0 0 0 0 0 0 0 0
dram_eff_bins: 0 0 0 0 0 0 0 0 0 0
mrqq: max=16 avg=0.0524289
Memory Partition 4: 
Cache L2_bank_008:
MSHR contents

Cache L2_bank_009:
MSHR contents

In Dram Latency Queue (total = 0): 
DRAM[4]: 16 bks, busW=4 BL=8 CL=12, tRRD=2 tCCD=6, tRCD=12 tRAS=28 tRP=12 tRC=40
n_cmd=167713 n_nop=156915 n_act=177 n_pre=161 n_req=5242 n_rd=10428 n_write=32 bw_util=0.1247
n_activity=64317 dram_eff=0.3253
bk0: 640a 166052i bk1: 640a 165935i bk2: 640a 166001i bk3: 640a 165888i bk4: 660a 165923i bk5: 664a 165679i bk6: 704a 165574i bk7: 704a 165415i bk8: 648a 165614i bk9: 648a 165485i bk10: 640a 165614i bk11: 640a 165313i bk12: 640a 165383i bk13: 640a 165491i bk14: 640a 165917i bk15: 640a 165841i 
dram_util_bins: 0 0 0 0 0 0 0 0 0 0
dram_eff_bins: 0 0 0 0 0 0 0 0 0 0
mrqq: max=16 avg=0.0588028
Memory Partition 5: 
Cache L2_bank_010:
MSHR contents

Cache L2_bank_011:
MSHR contents

In Dram Latency Queue (total = 0): 
DRAM[5]: 16 bks, busW=4 BL=8 CL=12, tRRD=2 tCCD=6, tRCD=12 tRAS=28 tRP=12 tRC=40
n_cmd=167713 n_nop=156921 n_act=174 n_pre=158 n_req=5242 n_rd=10428 n_write=32 bw_util=0.1247
n_activity=64626 dram_eff=0.3237
bk0: 640a 166003i bk1: 640a 165875i bk2: 640a 165979i bk3: 640a 165920i bk4: 660a 165889i bk5: 664a 165709i bk6: 704a 165575i bk7: 704a 165341i bk8: 648a 165733i bk9: 648a 165480i bk10: 640a 165651i bk11: 640a 165426i bk12: 640a 165540i bk13: 640a 165573i bk14: 640a 165999i bk15: 640a 165845i 
dram_util_bins: 0 0 0 0 0 0 0 0 0 0
dram_eff_bins: 0 0 0 0 0 0 0 0 0 0
mrqq: max=16 avg=0.0566802

========= L2 cache stats =========
L2_cache_bank[0]: Access = 3945, Miss = 2610, Miss_rate = 0.662, Pending_hits = 18, Reservation_fails = 693
L2_cache_bank[1]: Access = 3628, Miss = 2606, Miss_rate = 0.718, Pending_hits = 6, Reservation_fails = 248
L2_cache_bank[2]: Access = 3658, Miss = 2608, Miss_rate = 0.713, Pending_hits = 10, Reservation_fails = 382
L2_cache_bank[3]: Access = 3628, Miss = 2606, Miss_rate = 0.718, Pending_hits = 6, Reservation_fails = 284
L2_cache_bank[4]: Access = 3643, Miss = 2607, Miss_rate = 0.716, Pending_hits = 7, Reservation_fails = 332
L2_cache_bank[5]: Access = 3630, Miss = 2608, Miss_rate = 0.718, Pending_hits = 6, Reservation_fails = 388
L2_cache_bank[6]: Access = 3628, Miss = 2606, Miss_rate = 0.718, Pending_hits = 6, Reservation_fails = 239
L2_cache_bank[7]: Access = 4652, Miss = 2608, Miss_rate = 0.561, Pending_hits = 12, Reservation_fails = 556
L2_cache_bank[8]: Access = 3628, Miss = 2606, Miss_rate = 0.718, Pending_hits = 6, Reservation_fails = 353
L2_cache_bank[9]: Access = 4652, Miss = 2608, Miss_rate = 0.561, Pending_hits = 12, Reservation_fails = 580
L2_cache_bank[10]: Access = 3628, Miss = 2606, Miss_rate = 0.718, Pending_hits = 6, Reservation_fails = 300
L2_cache_bank[11]: Access = 4652, Miss = 2608, Miss_rate = 0.561, Pending_hits = 12, Reservation_fails = 557
L2_total_cache_accesses = 46972
L2_total_cache_misses = 31287
L2_total_cache_miss_rate = 0.6661
L2_total_cache_pending_hits = 107
L2_total_cache_reservation_fails = 4912
L2_total_cache_breakdown:
	L2_cache_stats_breakdown[GLOBAL_ACC_R][MISS] = 31250
	L2_cache_stats_breakdown[GLOBAL_ACC_R][RESERVATION_FAIL] = 797
	L2_cache_stats_breakdown[CONST_ACC_R][HIT] = 11
	L2_cache_stats_breakdown[CONST_ACC_R][HIT_RESERVED] = 3
	L2_cache_stats_breakdown[CONST_ACC_R][MISS] = 1
	L2_cache_stats_breakdown[CONST_ACC_R][RESERVATION_FAIL] = 102
	L2_cache_stats_breakdown[GLOBAL_ACC_W][HIT] = 15508
	L2_cache_stats_breakdown[GLOBAL_ACC_W][HIT_RESERVED] = 93
	L2_cache_stats_breakdown[GLOBAL_ACC_W][MISS] = 31
	L2_cache_stats_breakdown[GLOBAL_ACC_W][RESERVATION_FAIL] = 3661
	L2_cache_stats_breakdown[INST_ACC_R][HIT] = 59
	L2_cache_stats_breakdown[INST_ACC_R][HIT_RESERVED] = 11
	L2_cache_stats_breakdown[INST_ACC_R][MISS] = 5
	L2_cache_stats_breakdown[INST_ACC_R][RESERVATION_FAIL] = 352
L2_cache_data_port_util = 0.010
L2_cache_fill_port_util = 0.082

icnt_total_pkts_mem_to_simt=172302
icnt_total_pkts_simt_to_mem=62604
LD_mem_lat_dist  0 0 0 0 0 0 0 0 0 0 0 0 0 0 0 0 0 0 0 0 0 0 0 0 0 0 0
ST_mem_lat_dist  0 0 0 0 0 0 0 0 0 0 0 0 0 0 0 0 0 0 0 0 0 0 0 0 0 0 0
----------------------------Interconnect-DETAILS--------------------------------
Class 0:
Packet latency average = 15.1513
	minimum = 6
	maximum = 444
Network latency average = 12.242
	minimum = 6
	maximum = 276
Slowest packet = 3115
Flit latency average = 10.3116
	minimum = 6
	maximum = 275
Slowest flit = 13845
Fragmentation average = 0.00369369
	minimum = 0
	maximum = 90
Injected packet rate average = 0.0273848
	minimum = 0.0246033 (at node 0)
	maximum = 0.0366138 (at node 22)
Accepted packet rate average = 0.0273848
	minimum = 0.0246033 (at node 0)
	maximum = 0.0366138 (at node 22)
Injected flit rate average = 0.0684755
	minimum = 0.0327887 (at node 0)
	maximum = 0.118593 (at node 22)
Accepted flit rate average= 0.0684755
	minimum = 0.0366138 (at node 16)
	maximum = 0.0916446 (at node 2)
Injected packet length average = 2.50049
Accepted packet length average = 2.50049
Total in-flight flits = 0 (0 measured)
====== Overall Traffic Statistics ======
====== Traffic class 0 ======
Packet latency average = 15.1513 (1 samples)
	minimum = 6 (1 samples)
	maximum = 444 (1 samples)
Network latency average = 12.242 (1 samples)
	minimum = 6 (1 samples)
	maximum = 276 (1 samples)
Flit latency average = 10.3116 (1 samples)
	minimum = 6 (1 samples)
	maximum = 275 (1 samples)
Fragmentation average = 0.00369369 (1 samples)
	minimum = 0 (1 samples)
	maximum = 90 (1 samples)
Injected packet rate average = 0.0273848 (1 samples)
	minimum = 0.0246033 (1 samples)
	maximum = 0.0366138 (1 samples)
Accepted packet rate average = 0.0273848 (1 samples)
	minimum = 0.0246033 (1 samples)
	maximum = 0.0366138 (1 samples)
Injected flit rate average = 0.0684755 (1 samples)
	minimum = 0.0327887 (1 samples)
	maximum = 0.118593 (1 samples)
Accepted flit rate average = 0.0684755 (1 samples)
	minimum = 0.0366138 (1 samples)
	maximum = 0.0916446 (1 samples)
Injected packet size average = 2.50049 (1 samples)
Accepted packet size average = 2.50049 (1 samples)
Hops average = 1 (1 samples)
----------------------------END-of-Interconnect-DETAILS-------------------------


gpgpu_simulation_time = 0 days, 0 hrs, 3 min, 20 sec (200 sec)
gpgpu_simulation_rate = 362599 (inst/sec)
gpgpu_simulation_rate = 635 (cycle/sec)
200.393143 s
Copying data from device to host...0.000356 s
Verifying results...TEST PASSED

