

        *** GPGPU-Sim Simulator Version 3.2.2  [build 0] ***


GPGPU-Sim PTX: simulation mode 0 (can change with PTX_SIM_MODE_FUNC environment variable:
               1=functional simulation only, 0=detailed performance simulator)
GPGPU-Sim: Configuration options:

-network_mode                           1 # Interconnection network mode
-inter_config_file   config_fermi_islip.icnt # Interconnection network config file
-gpgpu_ptx_use_cuobjdump                    1 # Use cuobjdump to extract ptx and sass from binaries
-gpgpu_experimental_lib_support                    0 # Try to extract code from cuda libraries [Broken because of unknown cudaGetExportTable]
-gpgpu_ptx_convert_to_ptxplus                    0 # Convert SASS (native ISA) to ptxplus and run ptxplus
-gpgpu_ptx_force_max_capability                   20 # Force maximum compute capability
-gpgpu_ptx_inst_debug_to_file                    0 # Dump executed instructions' debug information to file
-gpgpu_ptx_inst_debug_file       inst_debug.txt # Executed instructions' debug output file
-gpgpu_ptx_inst_debug_thread_uid                    1 # Thread UID for executed instructions' debug output
-gpgpu_simd_model                       1 # 1 = post-dominator
-gpgpu_shader_core_pipeline              1536:32 # shader core pipeline config, i.e., {<nthread>:<warpsize>}
-gpgpu_tex_cache:l1  4:128:24,L:R:m:N:L,F:128:4,128:2 # per-shader L1 texture cache  (READ-ONLY) config  {<nsets>:<bsize>:<assoc>,<rep>:<wr>:<alloc>:<wr_alloc>,<mshr>:<N>:<merge>,<mq>:<rf>}
-gpgpu_const_cache:l1 64:64:2,L:R:f:N:L,A:2:32,4 # per-shader L1 constant memory cache  (READ-ONLY) config  {<nsets>:<bsize>:<assoc>,<rep>:<wr>:<alloc>:<wr_alloc>,<mshr>:<N>:<merge>,<mq>} 
-gpgpu_cache:il1     4:128:4,L:R:f:N:L,A:2:32,4 # shader L1 instruction cache config  {<nsets>:<bsize>:<assoc>,<rep>:<wr>:<alloc>:<wr_alloc>,<mshr>:<N>:<merge>,<mq>} 
-gpgpu_cache:dl1     32:128:4,L:L:m:N:H,A:32:8,8 # per-shader L1 data cache config  {<nsets>:<bsize>:<assoc>,<rep>:<wr>:<alloc>:<wr_alloc>,<mshr>:<N>:<merge>,<mq> | none}
-gpgpu_cache:dl1PrefL1                 none # per-shader L1 data cache config  {<nsets>:<bsize>:<assoc>,<rep>:<wr>:<alloc>:<wr_alloc>,<mshr>:<N>:<merge>,<mq> | none}
-gpgpu_cache:dl1PreShared                 none # per-shader L1 data cache config  {<nsets>:<bsize>:<assoc>,<rep>:<wr>:<alloc>:<wr_alloc>,<mshr>:<N>:<merge>,<mq> | none}
-gmem_skip_L1D                          0 # global memory access skip L1D cache (implements -Xptxas -dlcm=cg, default=no skip)
-gpgpu_perfect_mem                      0 # enable perfect memory mode (no cache miss)
-n_regfile_gating_group                    4 # group of lanes that should be read/written together)
-gpgpu_clock_gated_reg_file                    0 # enable clock gated reg file for power calculations
-gpgpu_clock_gated_lanes                    0 # enable clock gated lanes for power calculations
-gpgpu_shader_registers                32768 # Number of registers per shader core. Limits number of concurrent CTAs. (default 8192)
-gpgpu_shader_cta                       8 # Maximum number of concurrent CTAs in shader (default 8)
-gpgpu_num_cta_barriers                   16 # Maximum number of named barriers per CTA (default 16)
-gpgpu_n_clusters                      15 # number of processing clusters
-gpgpu_n_cores_per_cluster                    1 # number of simd cores per cluster
-gpgpu_n_cluster_ejection_buffer_size                    8 # number of packets in ejection buffer
-gpgpu_n_ldst_response_buffer_size                    2 # number of response packets in ld/st unit ejection buffer
-gpgpu_shmem_size                   16384 # Size of shared memory per shader core (default 16kB)
-gpgpu_shmem_size                   49152 # Size of shared memory per shader core (default 16kB)
-gpgpu_shmem_size_PrefL1                16384 # Size of shared memory per shader core (default 16kB)
-gpgpu_shmem_size_PrefShared                16384 # Size of shared memory per shader core (default 16kB)
-gpgpu_shmem_num_banks                   32 # Number of banks in the shared memory in each shader core (default 16)
-gpgpu_shmem_limited_broadcast                    0 # Limit shared memory to do one broadcast per cycle (default on)
-gpgpu_shmem_warp_parts                    1 # Number of portions a warp is divided into for shared memory bank conflict check 
-gpgpu_warpdistro_shader                   -1 # Specify which shader core to collect the warp size distribution from
-gpgpu_warp_issue_shader                    0 # Specify which shader core to collect the warp issue distribution from
-gpgpu_local_mem_map                    1 # Mapping from local memory space address to simulated GPU physical address space (default = enabled)
-gpgpu_num_reg_banks                   16 # Number of register banks (default = 8)
-gpgpu_reg_bank_use_warp_id                    0 # Use warp ID in mapping registers to banks (default = off)
-gpgpu_operand_collector_num_units_sp                    6 # number of collector units (default = 4)
-gpgpu_operand_collector_num_units_sfu                    8 # number of collector units (default = 4)
-gpgpu_operand_collector_num_units_mem                    2 # number of collector units (default = 2)
-gpgpu_operand_collector_num_units_gen                    0 # number of collector units (default = 0)
-gpgpu_operand_collector_num_in_ports_sp                    2 # number of collector unit in ports (default = 1)
-gpgpu_operand_collector_num_in_ports_sfu                    1 # number of collector unit in ports (default = 1)
-gpgpu_operand_collector_num_in_ports_mem                    1 # number of collector unit in ports (default = 1)
-gpgpu_operand_collector_num_in_ports_gen                    0 # number of collector unit in ports (default = 0)
-gpgpu_operand_collector_num_out_ports_sp                    2 # number of collector unit in ports (default = 1)
-gpgpu_operand_collector_num_out_ports_sfu                    1 # number of collector unit in ports (default = 1)
-gpgpu_operand_collector_num_out_ports_mem                    1 # number of collector unit in ports (default = 1)
-gpgpu_operand_collector_num_out_ports_gen                    0 # number of collector unit in ports (default = 0)
-gpgpu_coalesce_arch                   13 # Coalescing arch (default = 13, anything else is off for now)
-gpgpu_num_sched_per_core                    2 # Number of warp schedulers per core
-gpgpu_max_insn_issue_per_warp                    1 # Max number of instructions that can be issued per warp in one cycle by scheduler
-gpgpu_simt_core_sim_order                    1 # Select the simulation order of cores in a cluster (0=Fix, 1=Round-Robin)
-gpgpu_pipeline_widths        2,1,1,2,1,1,2 # Pipeline widths ID_OC_SP,ID_OC_SFU,ID_OC_MEM,OC_EX_SP,OC_EX_SFU,OC_EX_MEM,EX_WB
-gpgpu_num_sp_units                     2 # Number of SP units (default=1)
-gpgpu_num_sfu_units                    1 # Number of SF units (default=1)
-gpgpu_num_mem_units                    1 # Number if ldst units (default=1) WARNING: not hooked up to anything
-gpgpu_scheduler                      gto # Scheduler configuration: < lrr | gto | two_level_active > If two_level_active:<num_active_warps>:<inner_prioritization>:<outer_prioritization>For complete list of prioritization values see shader.h enum scheduler_prioritization_typeDefault: gto
-gpgpu_dram_scheduler                    1 # 0 = fifo, 1 = FR-FCFS (defaul)
-gpgpu_dram_partition_queues              8:8:8:8 # i2$:$2d:d2$:$2i
-l2_ideal                               0 # Use a ideal L2 cache that always hit
-gpgpu_cache:dl2     64:128:8,L:B:m:W:L,A:32:4,4:0,32 # unified banked L2 data cache config  {<nsets>:<bsize>:<assoc>,<rep>:<wr>:<alloc>:<wr_alloc>,<mshr>:<N>:<merge>,<mq>}
-gpgpu_cache:dl2_texture_only                    0 # L2 cache used for texture only
-gpgpu_n_mem                            6 # number of memory modules (e.g. memory controllers) in gpu
-gpgpu_n_sub_partition_per_mchannel                    2 # number of memory subpartition in each memory module
-gpgpu_n_mem_per_ctrlr                    2 # number of memory chips per memory controller
-gpgpu_memlatency_stat                   14 # track and display latency statistics 0x2 enables MC, 0x4 enables queue logs
-gpgpu_frfcfs_dram_sched_queue_size                   16 # 0 = unlimited (default); # entries per chip
-gpgpu_dram_return_queue_size                  116 # 0 = unlimited (default); # entries per chip
-gpgpu_dram_buswidth                    4 # default = 4 bytes (8 bytes per cycle at DDR)
-gpgpu_dram_burst_length                    8 # Burst length of each DRAM request (default = 4 data bus cycle)
-dram_data_command_freq_ratio                    4 # Frequency ratio between DRAM data bus and command bus (default = 2 times, i.e. DDR)
-gpgpu_dram_timing_opt nbk=16:CCD=2:RRD=6:RCD=12:RAS=28:RP=12:RC=40: CL=12:WL=4:CDLR=5:WR=12:nbkgrp=4:CCDL=3:RTPL=2 # DRAM timing parameters = {nbk:tCCD:tRRD:tRCD:tRAS:tRP:tRC:CL:WL:tCDLR:tWR:nbkgrp:tCCDL:tRTPL}
-rop_latency                          120 # ROP queue latency (default 85)
-dram_latency                         100 # DRAM latency (default 30)
-gpgpu_mem_addr_mapping dramid@8;00000000.00000000.00000000.00000000.0000RRRR.RRRRRRRR.BBBCCCCB.CCSSSSSS # mapping memory address to dram model {dramid@<start bit>;<memory address map>}
-gpgpu_mem_addr_test                    0 # run sweep test to check address mapping for aliased address
-gpgpu_mem_address_mask                    1 # 0 = old addressing mask, 1 = new addressing mask, 2 = new add. mask + flipped bank sel and chip sel bits
-gpuwattch_xml_file  gpuwattch_gtx480.xml # GPUWattch XML file
-power_simulation_enabled                    1 # Turn on power simulator (1=On, 0=Off)
-power_per_cycle_dump                    0 # Dump detailed power output each cycle
-power_trace_enabled                    0 # produce a file for the power trace (1=On, 0=Off)
-power_trace_zlevel                     6 # Compression level of the power trace output log (0=no comp, 9=highest)
-steady_power_levels_enabled                    0 # produce a file for the steady power levels (1=On, 0=Off)
-steady_state_definition                  8:4 # allowed deviation:number of samples
-gpgpu_max_cycle                        0 # terminates gpu simulation early (0 = no limit)
-gpgpu_max_insn                         0 # terminates gpu simulation early (0 = no limit)
-gpgpu_max_cta                          0 # terminates gpu simulation early (0 = no limit)
-gpgpu_runtime_stat                   500 # display runtime statistics such as dram utilization {<freq>:<flag>}
-liveness_message_freq                    1 # Minimum number of seconds between simulation liveness messages (0 = always print)
-gpgpu_flush_l1_cache                    0 # Flush L1 cache at the end of each kernel call
-gpgpu_flush_l2_cache                    0 # Flush L2 cache at the end of each kernel call
-gpgpu_deadlock_detect                    1 # Stop the simulation at deadlock (1=on (default), 0=off)
-gpgpu_ptx_instruction_classification                    0 # if enabled will classify ptx instruction types per kernel (Max 255 kernels now)
-gpgpu_ptx_sim_mode                     0 # Select between Performance (default) or Functional simulation (1)
-gpgpu_clock_domains 700.0:700.0:700.0:924.0 # Clock Domain Frequencies in MhZ {<Core Clock>:<ICNT Clock>:<L2 Clock>:<DRAM Clock>}
-gpgpu_max_concurrent_kernel                    8 # maximum kernels that can run concurrently on GPU
-gpgpu_cflog_interval                    0 # Interval between each snapshot in control flow logger
-visualizer_enabled                     0 # Turn on visualizer output (1=On, 0=Off)
-visualizer_outputfile                 NULL # Specifies the output log file for visualizer
-visualizer_zlevel                      6 # Compression level of the visualizer output log (0=no comp, 9=highest)
-trace_enabled                          0 # Turn on traces
-trace_components                    none # comma seperated list of traces to enable. Complete list found in trace_streams.tup. Default none
-trace_sampling_core                    0 # The core which is printed using CORE_DPRINTF. Default 0
-trace_sampling_memory_partition                   -1 # The memory partition which is printed using MEMPART_DPRINTF. Default -1 (i.e. all)
-enable_ptx_file_line_stats                    1 # Turn on PTX source line statistic profiling. (1 = On)
-ptx_line_stats_filename gpgpu_inst_stats.txt # Output file for PTX source line statistics.
-save_embedded_ptx                      0 # saves ptx files embedded in binary as <n>.ptx
-keep                                   0 # keep intermediate files created by GPGPU-Sim when interfacing with external programs
-gpgpu_ptx_save_converted_ptxplus                    0 # Saved converted ptxplus to a file
-ptx_opcode_latency_int         4,13,4,5,145 # Opcode latencies for integers <ADD,MAX,MUL,MAD,DIV>Default 1,1,19,25,145
-ptx_opcode_latency_fp          4,13,4,5,39 # Opcode latencies for single precision floating points <ADD,MAX,MUL,MAD,DIV>Default 1,1,1,1,30
-ptx_opcode_latency_dp         8,19,8,8,330 # Opcode latencies for double precision floating points <ADD,MAX,MUL,MAD,DIV>Default 8,8,8,8,335
-ptx_opcode_initiation_int            1,2,2,1,8 # Opcode initiation intervals for integers <ADD,MAX,MUL,MAD,DIV>Default 1,1,4,4,32
-ptx_opcode_initiation_fp            1,2,1,1,4 # Opcode initiation intervals for single precision floating points <ADD,MAX,MUL,MAD,DIV>Default 1,1,1,1,5
-ptx_opcode_initiation_dp         8,16,8,8,130 # Opcode initiation intervals for double precision floating points <ADD,MAX,MUL,MAD,DIV>Default 8,8,8,8,130
DRAM Timing Options:
nbk                                    16 # number of banks
CCD                                     2 # column to column delay
RRD                                     6 # minimal delay between activation of rows in different banks
RCD                                    12 # row to column delay
RAS                                    28 # time needed to activate row
RP                                     12 # time needed to precharge (deactivate) row
RC                                     40 # row cycle time
CDLR                                    5 # switching from write to read (changes tWTR)
WR                                     12 # last data-in to row precharge
CL                                     12 # CAS latency
WL                                      4 # Write latency
nbkgrp                                  4 # number of bank groups
CCDL                                    3 # column to column delay between accesses to different bank groups
RTPL                                    2 # read to precharge delay between accesses to different bank groups
Total number of memory sub partition = 12
addr_dec_mask[CHIP]  = 0000000000000000 	high:64 low:0
addr_dec_mask[BK]    = 000000000000e100 	high:16 low:8
addr_dec_mask[ROW]   = 000000000fff0000 	high:28 low:16
addr_dec_mask[COL]   = 0000000000001eff 	high:13 low:0
addr_dec_mask[BURST] = 000000000000003f 	high:6 low:0
sub_partition_id_mask = 0000000000000100
GPGPU-Sim uArch: clock freqs: 700000000.000000:700000000.000000:700000000.000000:924000000.000000
GPGPU-Sim uArch: clock periods: 0.00000000142857142857:0.00000000142857142857:0.00000000142857142857:0.00000000108225108225
*** Initializing Memory Statistics ***
GPGPU-Sim uArch: interconnect node map (shaderID+MemID to icntID)
GPGPU-Sim uArch: Memory nodes ID start from index: 15
GPGPU-Sim uArch:    0   1   2   3   4
GPGPU-Sim uArch:    5   6   7   8   9
GPGPU-Sim uArch:   10  11  12  13  14
GPGPU-Sim uArch:   15  16  17  18  19
GPGPU-Sim uArch:   20  21  22  23  24
GPGPU-Sim uArch:   25  26
GPGPU-Sim uArch: interconnect node reverse map (icntID to shaderID+MemID)
GPGPU-Sim uArch: Memory nodes start from ID: 15
GPGPU-Sim uArch:    0   1   2   3   4
GPGPU-Sim uArch:    5   6   7   8   9
GPGPU-Sim uArch:   10  11  12  13  14
GPGPU-Sim uArch:   15  16  17  18  19
GPGPU-Sim uArch:   20  21  22  23  24
GPGPU-Sim uArch:   25  26
e24b64f1a5363a95c2294d8c84f7a5e9  /root/CS217_GPU/Lab1/reduction
GPGPU-Sim uArch: performance model initialization complete.
GPGPU-Sim PTX: __cudaRegisterFatBinary, fat_cubin_handle = 1, filename=main.cu
self exe links to: /root/CS217_GPU/Lab1/reduction
Running md5sum using "md5sum /root/CS217_GPU/Lab1/reduction "
Running cuobjdump using "$CUDA_INSTALL_PATH/bin/cuobjdump -ptx -elf -sass /root/CS217_GPU/Lab1/reduction > _cuobjdump_complete_output_5XR3sA"
Parsing file _cuobjdump_complete_output_5XR3sA
######### cuobjdump parser ########
## Adding new section ELF
Adding arch: sm_10
Adding identifier: main.cu
## Adding new section PTX
Adding ptx filename: _cuobjdump_1.ptx
Adding arch: sm_10
Adding identifier: main.cu
## Adding new section ELF
Adding arch: sm_10
Adding identifier: support.cu
## Adding new section PTX
Adding ptx filename: _cuobjdump_2.ptx
Adding arch: sm_10
Adding identifier: support.cu
Done parsing!!!
GPGPU-Sim PTX: __cudaRegisterFunction _Z9reductionPfS_j : hostFun 0x0x400f10, fat_cubin_handle = 1
GPGPU-Sim PTX: allocating shared region for "__cuda___cuda_local_var_16314_59_non_const_partialSumVector20" from 0x0 to 0x1000 (shared memory space)
GPGPU-Sim PTX: instruction assembly for function '_Z9reductionPfS_j'...   done.
GPGPU-Sim PTX: finding reconvergence points for '_Z9reductionPfS_j'...
GPGPU-Sim PTX: Finding dominators for '_Z9reductionPfS_j'...
GPGPU-Sim PTX: Finding immediate dominators for '_Z9reductionPfS_j'...
GPGPU-Sim PTX: Finding postdominators for '_Z9reductionPfS_j'...
GPGPU-Sim PTX: Finding immediate postdominators for '_Z9reductionPfS_j'...
GPGPU-Sim PTX: pre-decoding instructions for '_Z9reductionPfS_j'...
GPGPU-Sim PTX: reconvergence points for _Z9reductionPfS_j...
GPGPU-Sim PTX:  1 (potential) branch divergence @  PC=0x048 (_1.ptx:70) @%p1 bra $Lt_0_3842;
GPGPU-Sim PTX:    immediate post dominator      @  PC=0x0b0 (_1.ptx:87) add.u32 %r8, %r3, %r1;
GPGPU-Sim PTX:  2 (potential) branch divergence @  PC=0x098 (_1.ptx:81) bra.uni $Lt_0_3586;
GPGPU-Sim PTX:    immediate post dominator      @  PC=0x0b0 (_1.ptx:87) add.u32 %r8, %r3, %r1;
GPGPU-Sim PTX:  3 (potential) branch divergence @  PC=0x0e0 (_1.ptx:95) @%p2 bra $Lt_0_4354;
GPGPU-Sim PTX:    immediate post dominator      @  PC=0x150 (_1.ptx:113) mov.u32 %r13, 1;
GPGPU-Sim PTX:  4 (potential) branch divergence @  PC=0x138 (_1.ptx:107) bra.uni $Lt_0_4098;
GPGPU-Sim PTX:    immediate post dominator      @  PC=0x150 (_1.ptx:113) mov.u32 %r13, 1;
GPGPU-Sim PTX:  5 (potential) branch divergence @  PC=0x160 (_1.ptx:115) @%p3 bra $Lt_0_4610;
GPGPU-Sim PTX:    immediate post dominator      @  PC=0x210 (_1.ptx:145) ld.shared.f32 %f8, [__cuda___cuda_local_var_16314_59_non_const_partialSumVector20+0];
GPGPU-Sim PTX:  6 (potential) branch divergence @  PC=0x190 (_1.ptx:124) @%p4 bra $Lt_0_5378;
GPGPU-Sim PTX:    immediate post dominator      @  PC=0x1f8 (_1.ptx:140) mul.lo.u32 %r14, %r14, 2;
GPGPU-Sim PTX:  7 (potential) branch divergence @  PC=0x208 (_1.ptx:142) @%p5 bra $Lt_0_5122;
GPGPU-Sim PTX:    immediate post dominator      @  PC=0x210 (_1.ptx:145) ld.shared.f32 %f8, [__cuda___cuda_local_var_16314_59_non_const_partialSumVector20+0];
GPGPU-Sim PTX: ... end of reconvergence points for _Z9reductionPfS_j
GPGPU-Sim PTX: ... done pre-decoding instructions for '_Z9reductionPfS_j'.
GPGPU-Sim PTX: finished parsing EMBEDDED .ptx file _1.ptx
Adding _cuobjdump_1.ptx with cubin handle 1
GPGPU-Sim PTX: extracting embedded .ptx to temporary file "_ptx_Q95zyQ"
Running: cat _ptx_Q95zyQ | sed 's/.version 1.5/.version 1.4/' | sed 's/, texmode_independent//' | sed 's/\(\.extern \.const\[1\] .b8 \w\+\)\[\]/\1\[1\]/' | sed 's/const\[.\]/const\[0\]/g' > _ptx2_LIm8D6
GPGPU-Sim PTX: generating ptxinfo using "$CUDA_INSTALL_PATH/bin/ptxas --gpu-name=sm_20 -v _ptx2_LIm8D6 --output-file  /dev/null 2> _ptx_Q95zyQinfo"
GPGPU-Sim PTX: Kernel '_Z9reductionPfS_j' : regs=8, lmem=0, smem=4096, cmem=52
GPGPU-Sim PTX: removing ptxinfo using "rm -f _ptx_Q95zyQ _ptx2_LIm8D6 _ptx_Q95zyQinfo"
GPGPU-Sim PTX: loading globals with explicit initializers... 
GPGPU-Sim PTX: finished loading globals (0 bytes total).
GPGPU-Sim PTX: loading constants with explicit initializers...  done.
GPGPU-Sim PTX: __cudaRegisterFatBinary, fat_cubin_handle = 2, filename=support.cu

Setting up the problem...0.027241 s
    Input size = 1000000
Allocating device variables...0.000021 s
Copying data from host to device...0.110005 s
Launching kernel...
GPGPU-Sim PTX: cudaLaunch for 0x0x400f10 (mode=performance simulation) on stream 0
GPGPU-Sim PTX: pushing kernel '_Z9reductionPfS_j' to stream 0, gridDim= (977,1,1) blockDim = (512,1,1) 
kernel '_Z9reductionPfS_j' transfer to GPU hardware scheduler
GPGPU-Sim uArch: Shader 1 bind to kernel 1 '_Z9reductionPfS_j'
GPGPU-Sim uArch: CTA/core = 3, limited by: threads
GPGPU-Sim uArch: core:  1, cta: 0 initialized @(1,0)
GPGPU-Sim uArch: Shader 2 bind to kernel 1 '_Z9reductionPfS_j'
GPGPU-Sim uArch: core:  2, cta: 0 initialized @(1,0)
GPGPU-Sim uArch: Shader 3 bind to kernel 1 '_Z9reductionPfS_j'
GPGPU-Sim uArch: core:  3, cta: 0 initialized @(1,0)
GPGPU-Sim uArch: Shader 4 bind to kernel 1 '_Z9reductionPfS_j'
GPGPU-Sim uArch: core:  4, cta: 0 initialized @(1,0)
GPGPU-Sim uArch: Shader 5 bind to kernel 1 '_Z9reductionPfS_j'
GPGPU-Sim uArch: core:  5, cta: 0 initialized @(1,0)
GPGPU-Sim uArch: Shader 6 bind to kernel 1 '_Z9reductionPfS_j'
GPGPU-Sim uArch: core:  6, cta: 0 initialized @(1,0)
GPGPU-Sim uArch: Shader 7 bind to kernel 1 '_Z9reductionPfS_j'
GPGPU-Sim uArch: core:  7, cta: 0 initialized @(1,0)
GPGPU-Sim uArch: Shader 8 bind to kernel 1 '_Z9reductionPfS_j'
GPGPU-Sim uArch: core:  8, cta: 0 initialized @(1,0)
GPGPU-Sim uArch: Shader 9 bind to kernel 1 '_Z9reductionPfS_j'
GPGPU-Sim uArch: core:  9, cta: 0 initialized @(1,0)
GPGPU-Sim uArch: Shader 10 bind to kernel 1 '_Z9reductionPfS_j'
GPGPU-Sim uArch: core: 10, cta: 0 initialized @(1,0)
GPGPU-Sim uArch: Shader 11 bind to kernel 1 '_Z9reductionPfS_j'
GPGPU-Sim uArch: core: 11, cta: 0 initialized @(1,0)
GPGPU-Sim uArch: Shader 12 bind to kernel 1 '_Z9reductionPfS_j'
GPGPU-Sim uArch: core: 12, cta: 0 initialized @(1,0)
GPGPU-Sim uArch: Shader 13 bind to kernel 1 '_Z9reductionPfS_j'
GPGPU-Sim uArch: core: 13, cta: 0 initialized @(1,0)
GPGPU-Sim uArch: Shader 14 bind to kernel 1 '_Z9reductionPfS_j'
GPGPU-Sim uArch: core: 14, cta: 0 initialized @(1,0)
GPGPU-Sim uArch: Shader 0 bind to kernel 1 '_Z9reductionPfS_j'
GPGPU-Sim uArch: core:  0, cta: 0 initialized @(1,0)
GPGPU-Sim uArch: core:  1, cta: 1 initialized @(2,0)
GPGPU-Sim uArch: core:  2, cta: 1 initialized @(2,0)
GPGPU-Sim uArch: core:  3, cta: 1 initialized @(2,0)
GPGPU-Sim uArch: core:  4, cta: 1 initialized @(2,0)
GPGPU-Sim uArch: core:  5, cta: 1 initialized @(2,0)
GPGPU-Sim uArch: core:  6, cta: 1 initialized @(2,0)
GPGPU-Sim uArch: core:  7, cta: 1 initialized @(2,0)
GPGPU-Sim uArch: core:  8, cta: 1 initialized @(2,0)
GPGPU-Sim uArch: core:  9, cta: 1 initialized @(2,0)
GPGPU-Sim uArch: core: 10, cta: 1 initialized @(2,0)
GPGPU-Sim uArch: core: 11, cta: 1 initialized @(2,0)
GPGPU-Sim uArch: core: 12, cta: 1 initialized @(2,0)
GPGPU-Sim uArch: core: 13, cta: 1 initialized @(2,0)
GPGPU-Sim uArch: core: 14, cta: 1 initialized @(2,0)
GPGPU-Sim uArch: core:  0, cta: 1 initialized @(2,0)
GPGPU-Sim uArch: core:  1, cta: 2 initialized @(3,0)
GPGPU-Sim uArch: core:  2, cta: 2 initialized @(3,0)
GPGPU-Sim uArch: core:  3, cta: 2 initialized @(3,0)
GPGPU-Sim uArch: core:  4, cta: 2 initialized @(3,0)
GPGPU-Sim uArch: core:  5, cta: 2 initialized @(3,0)
GPGPU-Sim uArch: core:  6, cta: 2 initialized @(3,0)
GPGPU-Sim uArch: core:  7, cta: 2 initialized @(3,0)
GPGPU-Sim uArch: core:  8, cta: 2 initialized @(3,0)
GPGPU-Sim uArch: core:  9, cta: 2 initialized @(3,0)
GPGPU-Sim uArch: core: 10, cta: 2 initialized @(3,0)
GPGPU-Sim uArch: core: 11, cta: 2 initialized @(3,0)
GPGPU-Sim uArch: core: 12, cta: 2 initialized @(3,0)
GPGPU-Sim uArch: core: 13, cta: 2 initialized @(3,0)
GPGPU-Sim uArch: core: 14, cta: 2 initialized @(3,0)
GPGPU-Sim uArch: core:  0, cta: 2 initialized @(3,0)
GPGPU-Sim PTX: 100000 instructions simulated : ctaid=(31,0,0) tid=(31,0,0)
GPGPU-Sim uArch: cycles simulated: 500  inst.: 144032 (ipc=288.1) sim_rate=144032 (inst/sec) elapsed = 0:0:00:01 / Tue Jan 29 09:21:04 2019
GPGPU-Sim PTX: 200000 instructions simulated : ctaid=(39,0,0) tid=(159,0,0)
GPGPU-Sim PTX: 300000 instructions simulated : ctaid=(13,0,0) tid=(511,0,0)
GPGPU-Sim PTX: 400000 instructions simulated : ctaid=(21,0,0) tid=(127,0,0)
GPGPU-Sim PTX: 500000 instructions simulated : ctaid=(5,0,0) tid=(383,0,0)
GPGPU-Sim PTX: 600000 instructions simulated : ctaid=(28,0,0) tid=(95,0,0)
GPGPU-Sim PTX: 700000 instructions simulated : ctaid=(43,0,0) tid=(159,0,0)
GPGPU-Sim PTX: 800000 instructions simulated : ctaid=(35,0,0) tid=(383,0,0)
GPGPU-Sim uArch: cycles simulated: 2500  inst.: 800224 (ipc=320.1) sim_rate=400112 (inst/sec) elapsed = 0:0:00:02 / Tue Jan 29 09:21:06 2019
GPGPU-Sim PTX: 900000 instructions simulated : ctaid=(29,0,0) tid=(95,0,0)
GPGPU-Sim PTX: 1000000 instructions simulated : ctaid=(33,0,0) tid=(351,0,0)
GPGPU-Sim PTX: 1100000 instructions simulated : ctaid=(4,0,0) tid=(479,0,0)
GPGPU-Sim PTX: 1200000 instructions simulated : ctaid=(22,0,0) tid=(223,0,0)
GPGPU-Sim PTX: 1300000 instructions simulated : ctaid=(33,0,0) tid=(255,0,0)
GPGPU-Sim PTX: 1400000 instructions simulated : ctaid=(24,0,0) tid=(511,0,0)
GPGPU-Sim uArch: cycles simulated: 3500  inst.: 1322496 (ipc=377.9) sim_rate=440832 (inst/sec) elapsed = 0:0:00:03 / Tue Jan 29 09:21:07 2019
GPGPU-Sim PTX: 1500000 instructions simulated : ctaid=(14,0,0) tid=(159,0,0)
GPGPU-Sim PTX: 1600000 instructions simulated : ctaid=(26,0,0) tid=(158,0,0)
GPGPU-Sim PTX: 1700000 instructions simulated : ctaid=(14,0,0) tid=(319,0,0)
GPGPU-Sim PTX: 1800000 instructions simulated : ctaid=(30,0,0) tid=(487,0,0)
GPGPU-Sim PTX: 1900000 instructions simulated : ctaid=(42,0,0) tid=(62,0,0)
GPGPU-Sim uArch: cycles simulated: 4500  inst.: 1846048 (ipc=410.2) sim_rate=461512 (inst/sec) elapsed = 0:0:00:04 / Tue Jan 29 09:21:08 2019
GPGPU-Sim PTX: 2000000 instructions simulated : ctaid=(38,0,0) tid=(252,0,0)
GPGPU-Sim PTX: 2100000 instructions simulated : ctaid=(35,0,0) tid=(39,0,0)
GPGPU-Sim PTX: 2200000 instructions simulated : ctaid=(4,0,0) tid=(124,0,0)
GPGPU-Sim PTX: 2300000 instructions simulated : ctaid=(9,0,0) tid=(304,0,0)
GPGPU-Sim uArch: cycles simulated: 5500  inst.: 2262286 (ipc=411.3) sim_rate=452457 (inst/sec) elapsed = 0:0:00:05 / Tue Jan 29 09:21:09 2019
GPGPU-Sim PTX: 2400000 instructions simulated : ctaid=(34,0,0) tid=(388,0,0)
GPGPU-Sim PTX: 2500000 instructions simulated : ctaid=(32,0,0) tid=(475,0,0)
GPGPU-Sim PTX: 2600000 instructions simulated : ctaid=(31,0,0) tid=(377,0,0)
GPGPU-Sim PTX: 2700000 instructions simulated : ctaid=(2,0,0) tid=(106,0,0)
GPGPU-Sim PTX: 2800000 instructions simulated : ctaid=(33,0,0) tid=(78,0,0)
GPGPU-Sim uArch: Shader 4 finished CTA #0 (6468,0), 2 CTAs running
GPGPU-Sim uArch: core:  4, cta: 0 initialized @(6469,0)
GPGPU-Sim uArch: Shader 13 finished CTA #0 (6499,0), 2 CTAs running
GPGPU-Sim uArch: core: 13, cta: 0 initialized @(6500,0)
GPGPU-Sim uArch: cycles simulated: 6500  inst.: 2760227 (ipc=424.7) sim_rate=460037 (inst/sec) elapsed = 0:0:00:06 / Tue Jan 29 09:21:10 2019
GPGPU-Sim PTX: 2900000 instructions simulated : ctaid=(22,0,0) tid=(350,0,0)
GPGPU-Sim PTX: 3000000 instructions simulated : ctaid=(22,0,0) tid=(294,0,0)
GPGPU-Sim PTX: 3100000 instructions simulated : ctaid=(16,0,0) tid=(174,0,0)
GPGPU-Sim uArch: Shader 6 finished CTA #0 (6904,0), 2 CTAs running
GPGPU-Sim uArch: core:  6, cta: 0 initialized @(6905,0)
GPGPU-Sim uArch: Shader 3 finished CTA #0 (6905,0), 2 CTAs running
GPGPU-Sim uArch: core:  3, cta: 0 initialized @(6906,0)
GPGPU-Sim uArch: Shader 8 finished CTA #0 (6911,0), 2 CTAs running
GPGPU-Sim uArch: core:  8, cta: 0 initialized @(6912,0)
GPGPU-Sim uArch: Shader 0 finished CTA #0 (7066,0), 2 CTAs running
GPGPU-Sim uArch: core:  0, cta: 0 initialized @(7067,0)
GPGPU-Sim PTX: 3200000 instructions simulated : ctaid=(15,0,0) tid=(158,0,0)
GPGPU-Sim uArch: Shader 9 finished CTA #0 (7090,0), 2 CTAs running
GPGPU-Sim uArch: core:  9, cta: 0 initialized @(7091,0)
GPGPU-Sim uArch: Shader 11 finished CTA #0 (7125,0), 2 CTAs running
GPGPU-Sim uArch: core: 11, cta: 0 initialized @(7126,0)
GPGPU-Sim uArch: Shader 14 finished CTA #0 (7130,0), 2 CTAs running
GPGPU-Sim uArch: core: 14, cta: 0 initialized @(7131,0)
GPGPU-Sim uArch: Shader 2 finished CTA #0 (7136,0), 2 CTAs running
GPGPU-Sim uArch: core:  2, cta: 0 initialized @(7137,0)
GPGPU-Sim uArch: Shader 1 finished CTA #0 (7143,0), 2 CTAs running
GPGPU-Sim uArch: core:  1, cta: 0 initialized @(7144,0)
GPGPU-Sim uArch: Shader 7 finished CTA #0 (7145,0), 2 CTAs running
GPGPU-Sim uArch: core:  7, cta: 0 initialized @(7146,0)
GPGPU-Sim uArch: Shader 10 finished CTA #0 (7182,0), 2 CTAs running
GPGPU-Sim uArch: core: 10, cta: 0 initialized @(7183,0)
GPGPU-Sim uArch: Shader 12 finished CTA #0 (7190,0), 2 CTAs running
GPGPU-Sim uArch: core: 12, cta: 0 initialized @(7191,0)
GPGPU-Sim uArch: Shader 5 finished CTA #0 (7242,0), 2 CTAs running
GPGPU-Sim uArch: core:  5, cta: 0 initialized @(7243,0)
GPGPU-Sim PTX: 3300000 instructions simulated : ctaid=(59,0,0) tid=(41,0,0)
GPGPU-Sim PTX: 3400000 instructions simulated : ctaid=(44,0,0) tid=(358,0,0)
GPGPU-Sim uArch: cycles simulated: 7500  inst.: 3287274 (ipc=438.3) sim_rate=469610 (inst/sec) elapsed = 0:0:00:07 / Tue Jan 29 09:21:11 2019
GPGPU-Sim uArch: Shader 6 finished CTA #1 (7598,0), 2 CTAs running
GPGPU-Sim uArch: core:  6, cta: 1 initialized @(7599,0)
GPGPU-Sim uArch: Shader 8 finished CTA #1 (7604,0), 2 CTAs running
GPGPU-Sim uArch: core:  8, cta: 1 initialized @(7605,0)
GPGPU-Sim PTX: 3500000 instructions simulated : ctaid=(39,0,0) tid=(268,0,0)
GPGPU-Sim uArch: Shader 9 finished CTA #1 (7729,0), 2 CTAs running
GPGPU-Sim uArch: core:  9, cta: 1 initialized @(7730,0)
GPGPU-Sim uArch: Shader 11 finished CTA #1 (7778,0), 2 CTAs running
GPGPU-Sim uArch: core: 11, cta: 1 initialized @(7779,0)
GPGPU-Sim uArch: Shader 14 finished CTA #1 (7783,0), 2 CTAs running
GPGPU-Sim uArch: core: 14, cta: 1 initialized @(7784,0)
GPGPU-Sim uArch: Shader 2 finished CTA #1 (7790,0), 2 CTAs running
GPGPU-Sim uArch: core:  2, cta: 1 initialized @(7791,0)
GPGPU-Sim uArch: Shader 0 finished CTA #1 (7795,0), 2 CTAs running
GPGPU-Sim uArch: core:  0, cta: 1 initialized @(7796,0)
GPGPU-Sim uArch: Shader 7 finished CTA #1 (7809,0), 2 CTAs running
GPGPU-Sim uArch: core:  7, cta: 1 initialized @(7810,0)
GPGPU-Sim uArch: Shader 3 finished CTA #1 (7826,0), 2 CTAs running
GPGPU-Sim uArch: core:  3, cta: 1 initialized @(7827,0)
GPGPU-Sim uArch: Shader 12 finished CTA #1 (7839,0), 2 CTAs running
GPGPU-Sim uArch: core: 12, cta: 1 initialized @(7840,0)
GPGPU-Sim PTX: 3600000 instructions simulated : ctaid=(63,0,0) tid=(131,0,0)
GPGPU-Sim uArch: Shader 1 finished CTA #1 (7859,0), 2 CTAs running
GPGPU-Sim uArch: core:  1, cta: 1 initialized @(7860,0)
GPGPU-Sim uArch: Shader 4 finished CTA #1 (7872,0), 2 CTAs running
GPGPU-Sim uArch: core:  4, cta: 1 initialized @(7873,0)
GPGPU-Sim uArch: Shader 13 finished CTA #1 (7874,0), 2 CTAs running
GPGPU-Sim uArch: core: 13, cta: 1 initialized @(7875,0)
GPGPU-Sim uArch: Shader 5 finished CTA #1 (7880,0), 2 CTAs running
GPGPU-Sim uArch: core:  5, cta: 1 initialized @(7881,0)
GPGPU-Sim uArch: Shader 10 finished CTA #1 (7888,0), 2 CTAs running
GPGPU-Sim uArch: core: 10, cta: 1 initialized @(7889,0)
GPGPU-Sim PTX: 3700000 instructions simulated : ctaid=(71,0,0) tid=(234,0,0)
GPGPU-Sim PTX: 3800000 instructions simulated : ctaid=(54,0,0) tid=(200,0,0)
GPGPU-Sim uArch: Shader 2 finished CTA #2 (8218,0), 2 CTAs running
GPGPU-Sim uArch: core:  2, cta: 2 initialized @(8219,0)
GPGPU-Sim PTX: 3900000 instructions simulated : ctaid=(70,0,0) tid=(199,0,0)
GPGPU-Sim uArch: Shader 7 finished CTA #2 (8274,0), 2 CTAs running
GPGPU-Sim uArch: core:  7, cta: 2 initialized @(8275,0)
GPGPU-Sim uArch: Shader 9 finished CTA #2 (8297,0), 2 CTAs running
GPGPU-Sim uArch: core:  9, cta: 2 initialized @(8298,0)
GPGPU-Sim PTX: 4000000 instructions simulated : ctaid=(59,0,0) tid=(411,0,0)
GPGPU-Sim uArch: cycles simulated: 8500  inst.: 3828625 (ipc=450.4) sim_rate=478578 (inst/sec) elapsed = 0:0:00:08 / Tue Jan 29 09:21:12 2019
GPGPU-Sim uArch: Shader 14 finished CTA #2 (8712,0), 2 CTAs running
GPGPU-Sim uArch: core: 14, cta: 2 initialized @(8713,0)
GPGPU-Sim PTX: 4100000 instructions simulated : ctaid=(64,0,0) tid=(379,0,0)
GPGPU-Sim uArch: Shader 8 finished CTA #2 (8989,0), 2 CTAs running
GPGPU-Sim uArch: core:  8, cta: 2 initialized @(8990,0)
GPGPU-Sim uArch: Shader 10 finished CTA #2 (9011,0), 2 CTAs running
GPGPU-Sim uArch: core: 10, cta: 2 initialized @(9012,0)
GPGPU-Sim PTX: 4200000 instructions simulated : ctaid=(80,0,0) tid=(91,0,0)
GPGPU-Sim uArch: Shader 6 finished CTA #2 (9037,0), 2 CTAs running
GPGPU-Sim uArch: core:  6, cta: 2 initialized @(9038,0)
GPGPU-Sim uArch: Shader 0 finished CTA #2 (9041,0), 2 CTAs running
GPGPU-Sim uArch: core:  0, cta: 2 initialized @(9042,0)
GPGPU-Sim uArch: Shader 3 finished CTA #2 (9043,0), 2 CTAs running
GPGPU-Sim uArch: core:  3, cta: 2 initialized @(9044,0)
GPGPU-Sim uArch: Shader 5 finished CTA #2 (9047,0), 2 CTAs running
GPGPU-Sim uArch: core:  5, cta: 2 initialized @(9048,0)
GPGPU-Sim uArch: Shader 11 finished CTA #2 (9049,0), 2 CTAs running
GPGPU-Sim uArch: core: 11, cta: 2 initialized @(9050,0)
GPGPU-Sim uArch: Shader 12 finished CTA #2 (9051,0), 2 CTAs running
GPGPU-Sim uArch: core: 12, cta: 2 initialized @(9052,0)
GPGPU-Sim uArch: Shader 13 finished CTA #2 (9057,0), 2 CTAs running
GPGPU-Sim uArch: core: 13, cta: 2 initialized @(9058,0)
GPGPU-Sim uArch: Shader 1 finished CTA #2 (9059,0), 2 CTAs running
GPGPU-Sim uArch: core:  1, cta: 2 initialized @(9060,0)
GPGPU-Sim uArch: Shader 4 finished CTA #2 (9068,0), 2 CTAs running
GPGPU-Sim uArch: core:  4, cta: 2 initialized @(9069,0)
GPGPU-Sim PTX: 4300000 instructions simulated : ctaid=(88,0,0) tid=(359,0,0)
GPGPU-Sim PTX: 4400000 instructions simulated : ctaid=(66,0,0) tid=(235,0,0)
GPGPU-Sim PTX: 4500000 instructions simulated : ctaid=(57,0,0) tid=(7,0,0)
GPGPU-Sim uArch: cycles simulated: 9500  inst.: 4338071 (ipc=456.6) sim_rate=482007 (inst/sec) elapsed = 0:0:00:09 / Tue Jan 29 09:21:13 2019
GPGPU-Sim PTX: 4600000 instructions simulated : ctaid=(86,0,0) tid=(87,0,0)
GPGPU-Sim PTX: 4700000 instructions simulated : ctaid=(46,0,0) tid=(137,0,0)
GPGPU-Sim PTX: 4800000 instructions simulated : ctaid=(80,0,0) tid=(435,0,0)
GPGPU-Sim uArch: cycles simulated: 10000  inst.: 4667530 (ipc=466.8) sim_rate=466753 (inst/sec) elapsed = 0:0:00:10 / Tue Jan 29 09:21:14 2019
GPGPU-Sim PTX: 4900000 instructions simulated : ctaid=(60,0,0) tid=(372,0,0)
GPGPU-Sim PTX: 5000000 instructions simulated : ctaid=(61,0,0) tid=(233,0,0)
GPGPU-Sim PTX: 5100000 instructions simulated : ctaid=(55,0,0) tid=(151,0,0)
GPGPU-Sim uArch: cycles simulated: 10500  inst.: 4951820 (ipc=471.6) sim_rate=450165 (inst/sec) elapsed = 0:0:00:11 / Tue Jan 29 09:21:15 2019
GPGPU-Sim PTX: 5200000 instructions simulated : ctaid=(65,0,0) tid=(147,0,0)
GPGPU-Sim PTX: 5300000 instructions simulated : ctaid=(59,0,0) tid=(3,0,0)
GPGPU-Sim PTX: 5400000 instructions simulated : ctaid=(69,0,0) tid=(143,0,0)
GPGPU-Sim uArch: Shader 4 finished CTA #0 (10928,0), 2 CTAs running
GPGPU-Sim uArch: core:  4, cta: 0 initialized @(10929,0)
GPGPU-Sim PTX: 5500000 instructions simulated : ctaid=(61,0,0) tid=(221,0,0)
GPGPU-Sim PTX: 5600000 instructions simulated : ctaid=(82,0,0) tid=(105,0,0)
GPGPU-Sim PTX: 5700000 instructions simulated : ctaid=(83,0,0) tid=(165,0,0)
GPGPU-Sim uArch: cycles simulated: 11500  inst.: 5477191 (ipc=476.3) sim_rate=456432 (inst/sec) elapsed = 0:0:00:12 / Tue Jan 29 09:21:16 2019
GPGPU-Sim PTX: 5800000 instructions simulated : ctaid=(67,0,0) tid=(400,0,0)
GPGPU-Sim uArch: Shader 9 finished CTA #0 (11680,0), 2 CTAs running
GPGPU-Sim uArch: core:  9, cta: 0 initialized @(11681,0)
GPGPU-Sim PTX: 5900000 instructions simulated : ctaid=(53,0,0) tid=(468,0,0)
GPGPU-Sim uArch: Shader 7 finished CTA #0 (11970,0), 2 CTAs running
GPGPU-Sim uArch: core:  7, cta: 0 initialized @(11971,0)
GPGPU-Sim PTX: 6000000 instructions simulated : ctaid=(72,0,0) tid=(6,0,0)
GPGPU-Sim uArch: cycles simulated: 12000  inst.: 5749501 (ipc=479.1) sim_rate=442269 (inst/sec) elapsed = 0:0:00:13 / Tue Jan 29 09:21:17 2019
GPGPU-Sim uArch: Shader 2 finished CTA #0 (12003,0), 2 CTAs running
GPGPU-Sim uArch: core:  2, cta: 0 initialized @(12004,0)
GPGPU-Sim uArch: Shader 14 finished CTA #0 (12039,0), 2 CTAs running
GPGPU-Sim uArch: core: 14, cta: 0 initialized @(12040,0)
GPGPU-Sim PTX: 6100000 instructions simulated : ctaid=(59,0,0) tid=(455,0,0)
GPGPU-Sim uArch: Shader 13 finished CTA #0 (12179,0), 2 CTAs running
GPGPU-Sim uArch: core: 13, cta: 0 initialized @(12180,0)
GPGPU-Sim uArch: Shader 8 finished CTA #0 (12220,0), 2 CTAs running
GPGPU-Sim uArch: core:  8, cta: 0 initialized @(12221,0)
GPGPU-Sim PTX: 6200000 instructions simulated : ctaid=(75,0,0) tid=(138,0,0)
GPGPU-Sim uArch: Shader 3 finished CTA #0 (12337,0), 2 CTAs running
GPGPU-Sim uArch: core:  3, cta: 0 initialized @(12338,0)
GPGPU-Sim uArch: cycles simulated: 12500  inst.: 6018595 (ipc=481.5) sim_rate=429899 (inst/sec) elapsed = 0:0:00:14 / Tue Jan 29 09:21:18 2019
GPGPU-Sim uArch: Shader 0 finished CTA #0 (12502,0), 2 CTAs running
GPGPU-Sim uArch: core:  0, cta: 0 initialized @(12503,0)
GPGPU-Sim PTX: 6300000 instructions simulated : ctaid=(60,0,0) tid=(382,0,0)
GPGPU-Sim uArch: Shader 6 finished CTA #0 (12553,0), 2 CTAs running
GPGPU-Sim uArch: core:  6, cta: 0 initialized @(12554,0)
GPGPU-Sim uArch: Shader 5 finished CTA #0 (12556,0), 2 CTAs running
GPGPU-Sim uArch: core:  5, cta: 0 initialized @(12557,0)
GPGPU-Sim uArch: Shader 10 finished CTA #0 (12557,0), 2 CTAs running
GPGPU-Sim uArch: core: 10, cta: 0 initialized @(12558,0)
GPGPU-Sim uArch: Shader 12 finished CTA #0 (12610,0), 2 CTAs running
GPGPU-Sim uArch: core: 12, cta: 0 initialized @(12611,0)
GPGPU-Sim uArch: Shader 11 finished CTA #0 (12633,0), 2 CTAs running
GPGPU-Sim uArch: core: 11, cta: 0 initialized @(12634,0)
GPGPU-Sim PTX: 6400000 instructions simulated : ctaid=(91,0,0) tid=(252,0,0)
GPGPU-Sim uArch: Shader 1 finished CTA #0 (12688,0), 2 CTAs running
GPGPU-Sim uArch: core:  1, cta: 0 initialized @(12689,0)
GPGPU-Sim PTX: 6500000 instructions simulated : ctaid=(77,0,0) tid=(484,0,0)
GPGPU-Sim uArch: cycles simulated: 13000  inst.: 6304001 (ipc=484.9) sim_rate=420266 (inst/sec) elapsed = 0:0:00:15 / Tue Jan 29 09:21:19 2019
GPGPU-Sim PTX: 6600000 instructions simulated : ctaid=(64,0,0) tid=(205,0,0)
GPGPU-Sim PTX: 6700000 instructions simulated : ctaid=(99,0,0) tid=(405,0,0)
GPGPU-Sim PTX: 6800000 instructions simulated : ctaid=(87,0,0) tid=(173,0,0)
GPGPU-Sim uArch: Shader 9 finished CTA #1 (13373,0), 2 CTAs running
GPGPU-Sim uArch: core:  9, cta: 1 initialized @(13374,0)
GPGPU-Sim uArch: Shader 6 finished CTA #1 (13394,0), 2 CTAs running
GPGPU-Sim uArch: core:  6, cta: 1 initialized @(13395,0)
GPGPU-Sim uArch: Shader 2 finished CTA #1 (13428,0), 2 CTAs running
GPGPU-Sim uArch: core:  2, cta: 1 initialized @(13429,0)
GPGPU-Sim uArch: Shader 7 finished CTA #1 (13429,0), 2 CTAs running
GPGPU-Sim uArch: core:  7, cta: 1 initialized @(13430,0)
GPGPU-Sim uArch: Shader 4 finished CTA #1 (13495,0), 2 CTAs running
GPGPU-Sim uArch: core:  4, cta: 1 initialized @(13496,0)
GPGPU-Sim uArch: cycles simulated: 13500  inst.: 6596156 (ipc=488.6) sim_rate=412259 (inst/sec) elapsed = 0:0:00:16 / Tue Jan 29 09:21:20 2019
GPGPU-Sim PTX: 6900000 instructions simulated : ctaid=(107,0,0) tid=(290,0,0)
GPGPU-Sim uArch: Shader 14 finished CTA #1 (13585,0), 2 CTAs running
GPGPU-Sim uArch: core: 14, cta: 1 initialized @(13586,0)
GPGPU-Sim PTX: 7000000 instructions simulated : ctaid=(101,0,0) tid=(227,0,0)
GPGPU-Sim uArch: Shader 8 finished CTA #1 (13700,0), 2 CTAs running
GPGPU-Sim uArch: core:  8, cta: 1 initialized @(13701,0)
GPGPU-Sim uArch: Shader 0 finished CTA #1 (13783,0), 2 CTAs running
GPGPU-Sim uArch: core:  0, cta: 1 initialized @(13784,0)
GPGPU-Sim PTX: 7100000 instructions simulated : ctaid=(69,0,0) tid=(303,0,0)
GPGPU-Sim uArch: Shader 13 finished CTA #1 (13951,0), 2 CTAs running
GPGPU-Sim uArch: core: 13, cta: 1 initialized @(13952,0)
GPGPU-Sim uArch: Shader 3 finished CTA #1 (14005,0), 2 CTAs running
GPGPU-Sim uArch: core:  3, cta: 1 initialized @(14006,0)
GPGPU-Sim PTX: 7200000 instructions simulated : ctaid=(108,0,0) tid=(415,0,0)
GPGPU-Sim uArch: Shader 10 finished CTA #1 (14034,0), 2 CTAs running
GPGPU-Sim uArch: core: 10, cta: 1 initialized @(14035,0)
GPGPU-Sim uArch: Shader 11 finished CTA #1 (14058,0), 2 CTAs running
GPGPU-Sim uArch: core: 11, cta: 1 initialized @(14059,0)
GPGPU-Sim uArch: Shader 5 finished CTA #1 (14085,0), 2 CTAs running
GPGPU-Sim uArch: core:  5, cta: 1 initialized @(14086,0)
GPGPU-Sim uArch: Shader 12 finished CTA #1 (14120,0), 2 CTAs running
GPGPU-Sim uArch: core: 12, cta: 1 initialized @(14121,0)
GPGPU-Sim uArch: Shader 1 finished CTA #1 (14142,0), 2 CTAs running
GPGPU-Sim uArch: core:  1, cta: 1 initialized @(14143,0)
GPGPU-Sim PTX: 7300000 instructions simulated : ctaid=(113,0,0) tid=(259,0,0)
GPGPU-Sim PTX: 7400000 instructions simulated : ctaid=(75,0,0) tid=(260,0,0)
GPGPU-Sim PTX: 7500000 instructions simulated : ctaid=(111,0,0) tid=(217,0,0)
GPGPU-Sim uArch: cycles simulated: 14500  inst.: 7213141 (ipc=497.5) sim_rate=424302 (inst/sec) elapsed = 0:0:00:17 / Tue Jan 29 09:21:21 2019
GPGPU-Sim uArch: Shader 7 finished CTA #2 (14500,0), 2 CTAs running
GPGPU-Sim uArch: core:  7, cta: 2 initialized @(14501,0)
GPGPU-Sim uArch: Shader 2 finished CTA #2 (14559,0), 2 CTAs running
GPGPU-Sim uArch: core:  2, cta: 2 initialized @(14560,0)
GPGPU-Sim PTX: 7600000 instructions simulated : ctaid=(104,0,0) tid=(154,0,0)
GPGPU-Sim PTX: 7700000 instructions simulated : ctaid=(86,0,0) tid=(352,0,0)
GPGPU-Sim uArch: Shader 9 finished CTA #2 (14760,0), 2 CTAs running
GPGPU-Sim uArch: core:  9, cta: 2 initialized @(14761,0)
GPGPU-Sim PTX: 7800000 instructions simulated : ctaid=(78,0,0) tid=(148,0,0)
GPGPU-Sim uArch: cycles simulated: 15000  inst.: 7558794 (ipc=503.9) sim_rate=419933 (inst/sec) elapsed = 0:0:00:18 / Tue Jan 29 09:21:22 2019
GPGPU-Sim PTX: 7900000 instructions simulated : ctaid=(98,0,0) tid=(59,0,0)
GPGPU-Sim uArch: Shader 4 finished CTA #2 (15021,0), 2 CTAs running
GPGPU-Sim uArch: core:  4, cta: 2 initialized @(15022,0)
GPGPU-Sim PTX: 8000000 instructions simulated : ctaid=(83,0,0) tid=(195,0,0)
GPGPU-Sim uArch: Shader 14 finished CTA #2 (15235,0), 2 CTAs running
GPGPU-Sim uArch: core: 14, cta: 2 initialized @(15236,0)
GPGPU-Sim uArch: Shader 8 finished CTA #2 (15291,0), 2 CTAs running
GPGPU-Sim uArch: core:  8, cta: 2 initialized @(15292,0)
GPGPU-Sim PTX: 8100000 instructions simulated : ctaid=(107,0,0) tid=(255,0,0)
GPGPU-Sim uArch: cycles simulated: 15500  inst.: 7843406 (ipc=506.0) sim_rate=412810 (inst/sec) elapsed = 0:0:00:19 / Tue Jan 29 09:21:23 2019
GPGPU-Sim uArch: Shader 1 finished CTA #2 (15514,0), 2 CTAs running
GPGPU-Sim uArch: core:  1, cta: 2 initialized @(15515,0)
GPGPU-Sim PTX: 8200000 instructions simulated : ctaid=(108,0,0) tid=(495,0,0)
GPGPU-Sim uArch: Shader 11 finished CTA #2 (15580,0), 2 CTAs running
GPGPU-Sim uArch: core: 11, cta: 2 initialized @(15581,0)
GPGPU-Sim uArch: Shader 6 finished CTA #2 (15591,0), 2 CTAs running
GPGPU-Sim uArch: core:  6, cta: 2 initialized @(15592,0)
GPGPU-Sim uArch: Shader 12 finished CTA #2 (15600,0), 2 CTAs running
GPGPU-Sim uArch: core: 12, cta: 2 initialized @(15601,0)
GPGPU-Sim uArch: Shader 13 finished CTA #2 (15650,0), 2 CTAs running
GPGPU-Sim uArch: core: 13, cta: 2 initialized @(15651,0)
GPGPU-Sim uArch: Shader 0 finished CTA #2 (15655,0), 2 CTAs running
GPGPU-Sim uArch: core:  0, cta: 2 initialized @(15656,0)
GPGPU-Sim uArch: Shader 3 finished CTA #2 (15656,0), 2 CTAs running
GPGPU-Sim uArch: core:  3, cta: 2 initialized @(15657,0)
GPGPU-Sim uArch: Shader 5 finished CTA #2 (15672,0), 2 CTAs running
GPGPU-Sim uArch: core:  5, cta: 2 initialized @(15673,0)
GPGPU-Sim uArch: Shader 10 finished CTA #2 (15678,0), 2 CTAs running
GPGPU-Sim uArch: core: 10, cta: 2 initialized @(15679,0)
GPGPU-Sim PTX: 8300000 instructions simulated : ctaid=(111,0,0) tid=(266,0,0)
GPGPU-Sim PTX: 8400000 instructions simulated : ctaid=(110,0,0) tid=(284,0,0)
GPGPU-Sim uArch: cycles simulated: 16000  inst.: 8125340 (ipc=507.8) sim_rate=406267 (inst/sec) elapsed = 0:0:00:20 / Tue Jan 29 09:21:24 2019
GPGPU-Sim PTX: 8500000 instructions simulated : ctaid=(116,0,0) tid=(59,0,0)
GPGPU-Sim PTX: 8600000 instructions simulated : ctaid=(91,0,0) tid=(222,0,0)
GPGPU-Sim PTX: 8700000 instructions simulated : ctaid=(94,0,0) tid=(292,0,0)
GPGPU-Sim PTX: 8800000 instructions simulated : ctaid=(94,0,0) tid=(127,0,0)
GPGPU-Sim PTX: 8900000 instructions simulated : ctaid=(109,0,0) tid=(508,0,0)
GPGPU-Sim uArch: Shader 4 finished CTA #0 (16752,0), 2 CTAs running
GPGPU-Sim uArch: core:  4, cta: 0 initialized @(16753,0)
GPGPU-Sim PTX: 9000000 instructions simulated : ctaid=(118,0,0) tid=(456,0,0)
GPGPU-Sim uArch: cycles simulated: 17000  inst.: 8713119 (ipc=512.5) sim_rate=414910 (inst/sec) elapsed = 0:0:00:21 / Tue Jan 29 09:21:25 2019
GPGPU-Sim PTX: 9100000 instructions simulated : ctaid=(93,0,0) tid=(7,0,0)
GPGPU-Sim uArch: Shader 9 finished CTA #0 (17053,0), 2 CTAs running
GPGPU-Sim uArch: core:  9, cta: 0 initialized @(17054,0)
GPGPU-Sim uArch: Shader 7 finished CTA #0 (17060,0), 2 CTAs running
GPGPU-Sim uArch: core:  7, cta: 0 initialized @(17061,0)
GPGPU-Sim PTX: 9200000 instructions simulated : ctaid=(121,0,0) tid=(476,0,0)
GPGPU-Sim uArch: Shader 2 finished CTA #0 (17188,0), 2 CTAs running
GPGPU-Sim uArch: core:  2, cta: 0 initialized @(17189,0)
GPGPU-Sim PTX: 9300000 instructions simulated : ctaid=(123,0,0) tid=(94,0,0)
GPGPU-Sim uArch: Shader 14 finished CTA #0 (17373,0), 2 CTAs running
GPGPU-Sim uArch: core: 14, cta: 0 initialized @(17374,0)
GPGPU-Sim uArch: cycles simulated: 17500  inst.: 8998000 (ipc=514.2) sim_rate=409000 (inst/sec) elapsed = 0:0:00:22 / Tue Jan 29 09:21:26 2019
GPGPU-Sim PTX: 9400000 instructions simulated : ctaid=(139,0,0) tid=(158,0,0)
GPGPU-Sim uArch: Shader 0 finished CTA #0 (17649,0), 2 CTAs running
GPGPU-Sim uArch: core:  0, cta: 0 initialized @(17650,0)
GPGPU-Sim uArch: Shader 8 finished CTA #0 (17666,0), 2 CTAs running
GPGPU-Sim uArch: core:  8, cta: 0 initialized @(17667,0)
GPGPU-Sim PTX: 9500000 instructions simulated : ctaid=(106,0,0) tid=(431,0,0)
GPGPU-Sim uArch: Shader 13 finished CTA #0 (17733,0), 2 CTAs running
GPGPU-Sim uArch: core: 13, cta: 0 initialized @(17734,0)
GPGPU-Sim uArch: Shader 3 finished CTA #0 (17754,0), 2 CTAs running
GPGPU-Sim uArch: core:  3, cta: 0 initialized @(17755,0)
GPGPU-Sim PTX: 9600000 instructions simulated : ctaid=(140,0,0) tid=(479,0,0)
GPGPU-Sim uArch: Shader 6 finished CTA #0 (17999,0), 2 CTAs running
GPGPU-Sim uArch: core:  6, cta: 0 initialized @(18000,0)
GPGPU-Sim uArch: Shader 5 finished CTA #0 (18011,0), 2 CTAs running
GPGPU-Sim uArch: core:  5, cta: 0 initialized @(18012,0)
GPGPU-Sim uArch: Shader 12 finished CTA #0 (18020,0), 2 CTAs running
GPGPU-Sim uArch: core: 12, cta: 0 initialized @(18021,0)
GPGPU-Sim uArch: Shader 11 finished CTA #0 (18021,0), 2 CTAs running
GPGPU-Sim uArch: core: 11, cta: 0 initialized @(18022,0)
GPGPU-Sim uArch: Shader 1 finished CTA #0 (18027,0), 2 CTAs running
GPGPU-Sim uArch: core:  1, cta: 0 initialized @(18028,0)
GPGPU-Sim uArch: Shader 10 finished CTA #0 (18033,0), 2 CTAs running
GPGPU-Sim uArch: core: 10, cta: 0 initialized @(18034,0)
GPGPU-Sim PTX: 9700000 instructions simulated : ctaid=(139,0,0) tid=(18,0,0)
GPGPU-Sim PTX: 9800000 instructions simulated : ctaid=(145,0,0) tid=(200,0,0)
GPGPU-Sim PTX: 9900000 instructions simulated : ctaid=(139,0,0) tid=(54,0,0)
GPGPU-Sim uArch: cycles simulated: 18500  inst.: 9576481 (ipc=517.6) sim_rate=416368 (inst/sec) elapsed = 0:0:00:23 / Tue Jan 29 09:21:27 2019
GPGPU-Sim PTX: 10000000 instructions simulated : ctaid=(127,0,0) tid=(120,0,0)
GPGPU-Sim PTX: 10100000 instructions simulated : ctaid=(136,0,0) tid=(151,0,0)
GPGPU-Sim uArch: Shader 9 finished CTA #1 (18789,0), 2 CTAs running
GPGPU-Sim uArch: core:  9, cta: 1 initialized @(18790,0)
GPGPU-Sim PTX: 10200000 instructions simulated : ctaid=(123,0,0) tid=(499,0,0)
GPGPU-Sim uArch: Shader 7 finished CTA #1 (18862,0), 2 CTAs running
GPGPU-Sim uArch: core:  7, cta: 1 initialized @(18863,0)
GPGPU-Sim uArch: Shader 4 finished CTA #1 (18913,0), 2 CTAs running
GPGPU-Sim uArch: core:  4, cta: 1 initialized @(18914,0)
GPGPU-Sim uArch: Shader 2 finished CTA #1 (18930,0), 2 CTAs running
GPGPU-Sim uArch: core:  2, cta: 1 initialized @(18931,0)
GPGPU-Sim PTX: 10300000 instructions simulated : ctaid=(151,0,0) tid=(187,0,0)
GPGPU-Sim uArch: cycles simulated: 19000  inst.: 9882025 (ipc=520.1) sim_rate=411751 (inst/sec) elapsed = 0:0:00:24 / Tue Jan 29 09:21:28 2019
GPGPU-Sim PTX: 10400000 instructions simulated : ctaid=(136,0,0) tid=(293,0,0)
GPGPU-Sim uArch: Shader 6 finished CTA #1 (19194,0), 2 CTAs running
GPGPU-Sim uArch: core:  6, cta: 1 initialized @(19195,0)
GPGPU-Sim PTX: 10500000 instructions simulated : ctaid=(129,0,0) tid=(35,0,0)
GPGPU-Sim uArch: Shader 14 finished CTA #1 (19378,0), 2 CTAs running
GPGPU-Sim uArch: core: 14, cta: 1 initialized @(19379,0)
GPGPU-Sim PTX: 10600000 instructions simulated : ctaid=(124,0,0) tid=(93,0,0)
GPGPU-Sim uArch: cycles simulated: 19500  inst.: 10173523 (ipc=521.7) sim_rate=406940 (inst/sec) elapsed = 0:0:00:25 / Tue Jan 29 09:21:29 2019
GPGPU-Sim uArch: Shader 5 finished CTA #1 (19530,0), 2 CTAs running
GPGPU-Sim uArch: core:  5, cta: 1 initialized @(19531,0)
GPGPU-Sim uArch: Shader 8 finished CTA #1 (19630,0), 2 CTAs running
GPGPU-Sim uArch: core:  8, cta: 1 initialized @(19631,0)
GPGPU-Sim uArch: Shader 12 finished CTA #1 (19665,0), 2 CTAs running
GPGPU-Sim uArch: core: 12, cta: 1 initialized @(19666,0)
GPGPU-Sim uArch: Shader 1 finished CTA #1 (19668,0), 2 CTAs running
GPGPU-Sim uArch: core:  1, cta: 1 initialized @(19669,0)
GPGPU-Sim PTX: 10700000 instructions simulated : ctaid=(132,0,0) tid=(185,0,0)
GPGPU-Sim uArch: Shader 3 finished CTA #1 (19705,0), 2 CTAs running
GPGPU-Sim uArch: core:  3, cta: 1 initialized @(19706,0)
GPGPU-Sim uArch: Shader 11 finished CTA #1 (19749,0), 2 CTAs running
GPGPU-Sim uArch: core: 11, cta: 1 initialized @(19750,0)
GPGPU-Sim uArch: Shader 13 finished CTA #1 (19763,0), 2 CTAs running
GPGPU-Sim uArch: core: 13, cta: 1 initialized @(19764,0)
GPGPU-Sim uArch: Shader 0 finished CTA #1 (19778,0), 2 CTAs running
GPGPU-Sim uArch: core:  0, cta: 1 initialized @(19779,0)
GPGPU-Sim uArch: Shader 10 finished CTA #1 (19781,0), 2 CTAs running
GPGPU-Sim uArch: core: 10, cta: 1 initialized @(19782,0)
GPGPU-Sim PTX: 10800000 instructions simulated : ctaid=(139,0,0) tid=(103,0,0)
GPGPU-Sim PTX: 10900000 instructions simulated : ctaid=(143,0,0) tid=(126,0,0)
GPGPU-Sim PTX: 11000000 instructions simulated : ctaid=(149,0,0) tid=(37,0,0)
GPGPU-Sim PTX: 11100000 instructions simulated : ctaid=(120,0,0) tid=(94,0,0)
GPGPU-Sim PTX: 11200000 instructions simulated : ctaid=(156,0,0) tid=(332,0,0)
GPGPU-Sim uArch: Shader 2 finished CTA #2 (20444,0), 2 CTAs running
GPGPU-Sim uArch: core:  2, cta: 2 initialized @(20445,0)
GPGPU-Sim uArch: cycles simulated: 20500  inst.: 10775655 (ipc=525.6) sim_rate=414448 (inst/sec) elapsed = 0:0:00:26 / Tue Jan 29 09:21:30 2019
GPGPU-Sim PTX: 11300000 instructions simulated : ctaid=(154,0,0) tid=(78,0,0)
GPGPU-Sim uArch: Shader 7 finished CTA #2 (20606,0), 2 CTAs running
GPGPU-Sim uArch: core:  7, cta: 2 initialized @(20607,0)
GPGPU-Sim uArch: Shader 9 finished CTA #2 (20700,0), 2 CTAs running
GPGPU-Sim uArch: core:  9, cta: 2 initialized @(20701,0)
GPGPU-Sim PTX: 11400000 instructions simulated : ctaid=(140,0,0) tid=(49,0,0)
GPGPU-Sim uArch: Shader 4 finished CTA #2 (20847,0), 2 CTAs running
GPGPU-Sim uArch: core:  4, cta: 2 initialized @(20848,0)
GPGPU-Sim PTX: 11500000 instructions simulated : ctaid=(144,0,0) tid=(147,0,0)
GPGPU-Sim uArch: Shader 8 finished CTA #2 (20931,0), 2 CTAs running
GPGPU-Sim uArch: core:  8, cta: 2 initialized @(20932,0)
GPGPU-Sim uArch: cycles simulated: 21000  inst.: 11082461 (ipc=527.7) sim_rate=410461 (inst/sec) elapsed = 0:0:00:27 / Tue Jan 29 09:21:31 2019
GPGPU-Sim PTX: 11600000 instructions simulated : ctaid=(151,0,0) tid=(30,0,0)
GPGPU-Sim uArch: Shader 14 finished CTA #2 (21183,0), 2 CTAs running
GPGPU-Sim uArch: core: 14, cta: 2 initialized @(21184,0)
GPGPU-Sim PTX: 11700000 instructions simulated : ctaid=(162,0,0) tid=(230,0,0)
GPGPU-Sim uArch: Shader 0 finished CTA #2 (21253,0), 2 CTAs running
GPGPU-Sim uArch: core:  0, cta: 2 initialized @(21254,0)
GPGPU-Sim uArch: Shader 6 finished CTA #2 (21264,0), 2 CTAs running
GPGPU-Sim uArch: core:  6, cta: 2 initialized @(21265,0)
GPGPU-Sim uArch: Shader 11 finished CTA #2 (21340,0), 2 CTAs running
GPGPU-Sim uArch: core: 11, cta: 2 initialized @(21341,0)
GPGPU-Sim uArch: Shader 1 finished CTA #2 (21349,0), 2 CTAs running
GPGPU-Sim uArch: core:  1, cta: 2 initialized @(21350,0)
GPGPU-Sim uArch: Shader 13 finished CTA #2 (21376,0), 2 CTAs running
GPGPU-Sim uArch: core: 13, cta: 2 initialized @(21377,0)
GPGPU-Sim PTX: 11800000 instructions simulated : ctaid=(175,0,0) tid=(16,0,0)
GPGPU-Sim uArch: Shader 3 finished CTA #2 (21436,0), 2 CTAs running
GPGPU-Sim uArch: core:  3, cta: 2 initialized @(21437,0)
GPGPU-Sim uArch: Shader 10 finished CTA #2 (21456,0), 2 CTAs running
GPGPU-Sim uArch: core: 10, cta: 2 initialized @(21457,0)
GPGPU-Sim uArch: cycles simulated: 21500  inst.: 11368321 (ipc=528.8) sim_rate=406011 (inst/sec) elapsed = 0:0:00:28 / Tue Jan 29 09:21:32 2019
GPGPU-Sim uArch: Shader 5 finished CTA #2 (21546,0), 2 CTAs running
GPGPU-Sim uArch: core:  5, cta: 2 initialized @(21547,0)
GPGPU-Sim uArch: Shader 12 finished CTA #2 (21558,0), 2 CTAs running
GPGPU-Sim uArch: core: 12, cta: 2 initialized @(21559,0)
GPGPU-Sim PTX: 11900000 instructions simulated : ctaid=(156,0,0) tid=(97,0,0)
GPGPU-Sim PTX: 12000000 instructions simulated : ctaid=(155,0,0) tid=(436,0,0)
GPGPU-Sim PTX: 12100000 instructions simulated : ctaid=(178,0,0) tid=(129,0,0)
GPGPU-Sim PTX: 12200000 instructions simulated : ctaid=(160,0,0) tid=(272,0,0)
GPGPU-Sim PTX: 12300000 instructions simulated : ctaid=(146,0,0) tid=(503,0,0)
GPGPU-Sim PTX: 12400000 instructions simulated : ctaid=(159,0,0) tid=(164,0,0)
GPGPU-Sim uArch: cycles simulated: 22500  inst.: 11968250 (ipc=531.9) sim_rate=412698 (inst/sec) elapsed = 0:0:00:29 / Tue Jan 29 09:21:33 2019
GPGPU-Sim PTX: 12500000 instructions simulated : ctaid=(153,0,0) tid=(438,0,0)
GPGPU-Sim uArch: Shader 4 finished CTA #0 (22544,0), 2 CTAs running
GPGPU-Sim uArch: core:  4, cta: 0 initialized @(22545,0)
GPGPU-Sim uArch: Shader 9 finished CTA #0 (22633,0), 2 CTAs running
GPGPU-Sim uArch: core:  9, cta: 0 initialized @(22634,0)
GPGPU-Sim uArch: Shader 7 finished CTA #0 (22664,0), 2 CTAs running
GPGPU-Sim uArch: core:  7, cta: 0 initialized @(22665,0)
GPGPU-Sim PTX: 12600000 instructions simulated : ctaid=(139,0,0) tid=(445,0,0)
GPGPU-Sim uArch: Shader 2 finished CTA #0 (22689,0), 2 CTAs running
GPGPU-Sim uArch: core:  2, cta: 0 initialized @(22690,0)
GPGPU-Sim PTX: 12700000 instructions simulated : ctaid=(156,0,0) tid=(456,0,0)
GPGPU-Sim uArch: Shader 14 finished CTA #0 (22927,0), 2 CTAs running
GPGPU-Sim uArch: core: 14, cta: 0 initialized @(22928,0)
GPGPU-Sim uArch: cycles simulated: 23000  inst.: 12263917 (ipc=533.2) sim_rate=408797 (inst/sec) elapsed = 0:0:00:30 / Tue Jan 29 09:21:34 2019
GPGPU-Sim PTX: 12800000 instructions simulated : ctaid=(156,0,0) tid=(357,0,0)
GPGPU-Sim PTX: 12900000 instructions simulated : ctaid=(160,0,0) tid=(478,0,0)
GPGPU-Sim uArch: Shader 8 finished CTA #0 (23213,0), 2 CTAs running
GPGPU-Sim uArch: core:  8, cta: 0 initialized @(23214,0)
GPGPU-Sim uArch: Shader 6 finished CTA #0 (23284,0), 2 CTAs running
GPGPU-Sim uArch: core:  6, cta: 0 initialized @(23285,0)
GPGPU-Sim uArch: Shader 0 finished CTA #0 (23344,0), 2 CTAs running
GPGPU-Sim uArch: core:  0, cta: 0 initialized @(23345,0)
GPGPU-Sim PTX: 13000000 instructions simulated : ctaid=(167,0,0) tid=(248,0,0)
GPGPU-Sim uArch: Shader 11 finished CTA #0 (23399,0), 2 CTAs running
GPGPU-Sim uArch: core: 11, cta: 0 initialized @(23400,0)
GPGPU-Sim uArch: Shader 13 finished CTA #0 (23419,0), 2 CTAs running
GPGPU-Sim uArch: core: 13, cta: 0 initialized @(23420,0)
GPGPU-Sim uArch: Shader 3 finished CTA #0 (23442,0), 2 CTAs running
GPGPU-Sim uArch: core:  3, cta: 0 initialized @(23443,0)
GPGPU-Sim uArch: Shader 1 finished CTA #0 (23469,0), 2 CTAs running
GPGPU-Sim uArch: core:  1, cta: 0 initialized @(23470,0)
GPGPU-Sim uArch: cycles simulated: 23500  inst.: 12532982 (ipc=533.3) sim_rate=404289 (inst/sec) elapsed = 0:0:00:31 / Tue Jan 29 09:21:35 2019
GPGPU-Sim uArch: Shader 10 finished CTA #0 (23549,0), 2 CTAs running
GPGPU-Sim uArch: core: 10, cta: 0 initialized @(23550,0)
GPGPU-Sim PTX: 13100000 instructions simulated : ctaid=(190,0,0) tid=(85,0,0)
GPGPU-Sim uArch: Shader 5 finished CTA #0 (23608,0), 2 CTAs running
GPGPU-Sim uArch: core:  5, cta: 0 initialized @(23609,0)
GPGPU-Sim uArch: Shader 12 finished CTA #0 (23614,0), 2 CTAs running
GPGPU-Sim uArch: core: 12, cta: 0 initialized @(23615,0)
GPGPU-Sim PTX: 13200000 instructions simulated : ctaid=(184,0,0) tid=(183,0,0)
GPGPU-Sim PTX: 13300000 instructions simulated : ctaid=(178,0,0) tid=(272,0,0)
GPGPU-Sim PTX: 13400000 instructions simulated : ctaid=(170,0,0) tid=(432,0,0)
GPGPU-Sim PTX: 13500000 instructions simulated : ctaid=(164,0,0) tid=(437,0,0)
GPGPU-Sim PTX: 13600000 instructions simulated : ctaid=(177,0,0) tid=(420,0,0)
GPGPU-Sim uArch: Shader 7 finished CTA #1 (24471,0), 2 CTAs running
GPGPU-Sim uArch: core:  7, cta: 1 initialized @(24472,0)
GPGPU-Sim uArch: cycles simulated: 24500  inst.: 13137414 (ipc=536.2) sim_rate=410544 (inst/sec) elapsed = 0:0:00:32 / Tue Jan 29 09:21:36 2019
GPGPU-Sim PTX: 13700000 instructions simulated : ctaid=(155,0,0) tid=(32,0,0)
GPGPU-Sim uArch: Shader 2 finished CTA #1 (24579,0), 2 CTAs running
GPGPU-Sim uArch: core:  2, cta: 1 initialized @(24580,0)
GPGPU-Sim uArch: Shader 4 finished CTA #1 (24607,0), 2 CTAs running
GPGPU-Sim uArch: core:  4, cta: 1 initialized @(24608,0)
GPGPU-Sim PTX: 13800000 instructions simulated : ctaid=(179,0,0) tid=(98,0,0)
GPGPU-Sim uArch: Shader 9 finished CTA #1 (24690,0), 2 CTAs running
GPGPU-Sim uArch: core:  9, cta: 1 initialized @(24691,0)
GPGPU-Sim PTX: 13900000 instructions simulated : ctaid=(166,0,0) tid=(416,0,0)
GPGPU-Sim PTX: 14000000 instructions simulated : ctaid=(177,0,0) tid=(270,0,0)
GPGPU-Sim uArch: cycles simulated: 25000  inst.: 13429522 (ipc=537.2) sim_rate=406955 (inst/sec) elapsed = 0:0:00:33 / Tue Jan 29 09:21:37 2019
GPGPU-Sim uArch: Shader 14 finished CTA #1 (25021,0), 2 CTAs running
GPGPU-Sim uArch: core: 14, cta: 1 initialized @(25022,0)
GPGPU-Sim uArch: Shader 6 finished CTA #1 (25050,0), 2 CTAs running
GPGPU-Sim uArch: core:  6, cta: 1 initialized @(25051,0)
GPGPU-Sim uArch: Shader 8 finished CTA #1 (25116,0), 2 CTAs running
GPGPU-Sim uArch: core:  8, cta: 1 initialized @(25117,0)
GPGPU-Sim PTX: 14100000 instructions simulated : ctaid=(198,0,0) tid=(452,0,0)
GPGPU-Sim uArch: Shader 5 finished CTA #1 (25328,0), 2 CTAs running
GPGPU-Sim uArch: core:  5, cta: 1 initialized @(25329,0)
GPGPU-Sim uArch: Shader 13 finished CTA #1 (25347,0), 2 CTAs running
GPGPU-Sim uArch: core: 13, cta: 1 initialized @(25348,0)
GPGPU-Sim PTX: 14200000 instructions simulated : ctaid=(196,0,0) tid=(1,0,0)
GPGPU-Sim uArch: cycles simulated: 25500  inst.: 13694435 (ipc=537.0) sim_rate=402777 (inst/sec) elapsed = 0:0:00:34 / Tue Jan 29 09:21:38 2019
GPGPU-Sim PTX: 14300000 instructions simulated : ctaid=(168,0,0) tid=(252,0,0)
GPGPU-Sim uArch: Shader 10 finished CTA #1 (25545,0), 2 CTAs running
GPGPU-Sim uArch: core: 10, cta: 1 initialized @(25546,0)
GPGPU-Sim uArch: Shader 3 finished CTA #1 (25555,0), 2 CTAs running
GPGPU-Sim uArch: core:  3, cta: 1 initialized @(25556,0)
GPGPU-Sim uArch: Shader 11 finished CTA #1 (25600,0), 2 CTAs running
GPGPU-Sim uArch: core: 11, cta: 1 initialized @(25601,0)
GPGPU-Sim uArch: Shader 0 finished CTA #1 (25611,0), 2 CTAs running
GPGPU-Sim uArch: core:  0, cta: 1 initialized @(25612,0)
GPGPU-Sim uArch: Shader 12 finished CTA #1 (25619,0), 2 CTAs running
GPGPU-Sim uArch: core: 12, cta: 1 initialized @(25620,0)
GPGPU-Sim uArch: Shader 1 finished CTA #1 (25647,0), 2 CTAs running
GPGPU-Sim uArch: core:  1, cta: 1 initialized @(25648,0)
GPGPU-Sim PTX: 14400000 instructions simulated : ctaid=(165,0,0) tid=(420,0,0)
GPGPU-Sim PTX: 14500000 instructions simulated : ctaid=(195,0,0) tid=(467,0,0)
GPGPU-Sim PTX: 14600000 instructions simulated : ctaid=(198,0,0) tid=(407,0,0)
GPGPU-Sim uArch: cycles simulated: 26000  inst.: 14006966 (ipc=538.7) sim_rate=400199 (inst/sec) elapsed = 0:0:00:35 / Tue Jan 29 09:21:39 2019
GPGPU-Sim PTX: 14700000 instructions simulated : ctaid=(187,0,0) tid=(358,0,0)
GPGPU-Sim uArch: Shader 2 finished CTA #2 (26295,0), 2 CTAs running
GPGPU-Sim uArch: core:  2, cta: 2 initialized @(26296,0)
GPGPU-Sim PTX: 14800000 instructions simulated : ctaid=(200,0,0) tid=(229,0,0)
GPGPU-Sim uArch: Shader 9 finished CTA #2 (26414,0), 2 CTAs running
GPGPU-Sim uArch: core:  9, cta: 2 initialized @(26415,0)
GPGPU-Sim PTX: 14900000 instructions simulated : ctaid=(176,0,0) tid=(240,0,0)
GPGPU-Sim uArch: cycles simulated: 26500  inst.: 14315855 (ipc=540.2) sim_rate=397662 (inst/sec) elapsed = 0:0:00:36 / Tue Jan 29 09:21:40 2019
GPGPU-Sim uArch: Shader 7 finished CTA #2 (26549,0), 2 CTAs running
GPGPU-Sim uArch: core:  7, cta: 2 initialized @(26550,0)
GPGPU-Sim uArch: Shader 4 finished CTA #2 (26550,0), 2 CTAs running
GPGPU-Sim uArch: core:  4, cta: 2 initialized @(26551,0)
GPGPU-Sim PTX: 15000000 instructions simulated : ctaid=(187,0,0) tid=(504,0,0)
GPGPU-Sim PTX: 15100000 instructions simulated : ctaid=(184,0,0) tid=(325,0,0)
GPGPU-Sim uArch: Shader 14 finished CTA #2 (26772,0), 2 CTAs running
GPGPU-Sim uArch: core: 14, cta: 2 initialized @(26773,0)
GPGPU-Sim PTX: 15200000 instructions simulated : ctaid=(212,0,0) tid=(400,0,0)
GPGPU-Sim uArch: Shader 8 finished CTA #2 (26966,0), 2 CTAs running
GPGPU-Sim uArch: core:  8, cta: 2 initialized @(26967,0)
GPGPU-Sim uArch: Shader 6 finished CTA #2 (26994,0), 2 CTAs running
GPGPU-Sim uArch: core:  6, cta: 2 initialized @(26995,0)
GPGPU-Sim uArch: cycles simulated: 27000  inst.: 14616230 (ipc=541.3) sim_rate=395033 (inst/sec) elapsed = 0:0:00:37 / Tue Jan 29 09:21:41 2019
GPGPU-Sim uArch: Shader 0 finished CTA #2 (27092,0), 2 CTAs running
GPGPU-Sim uArch: core:  0, cta: 2 initialized @(27093,0)
GPGPU-Sim PTX: 15300000 instructions simulated : ctaid=(208,0,0) tid=(400,0,0)
GPGPU-Sim uArch: Shader 11 finished CTA #2 (27129,0), 2 CTAs running
GPGPU-Sim uArch: core: 11, cta: 2 initialized @(27130,0)
GPGPU-Sim uArch: Shader 1 finished CTA #2 (27225,0), 2 CTAs running
GPGPU-Sim uArch: core:  1, cta: 2 initialized @(27226,0)
GPGPU-Sim uArch: Shader 3 finished CTA #2 (27275,0), 2 CTAs running
GPGPU-Sim uArch: core:  3, cta: 2 initialized @(27276,0)
GPGPU-Sim PTX: 15400000 instructions simulated : ctaid=(187,0,0) tid=(366,0,0)
GPGPU-Sim uArch: Shader 12 finished CTA #2 (27287,0), 2 CTAs running
GPGPU-Sim uArch: core: 12, cta: 2 initialized @(27288,0)
GPGPU-Sim uArch: Shader 13 finished CTA #2 (27300,0), 2 CTAs running
GPGPU-Sim uArch: core: 13, cta: 2 initialized @(27301,0)
GPGPU-Sim uArch: Shader 10 finished CTA #2 (27339,0), 2 CTAs running
GPGPU-Sim uArch: core: 10, cta: 2 initialized @(27340,0)
GPGPU-Sim uArch: Shader 5 finished CTA #2 (27348,0), 2 CTAs running
GPGPU-Sim uArch: core:  5, cta: 2 initialized @(27349,0)
GPGPU-Sim PTX: 15500000 instructions simulated : ctaid=(200,0,0) tid=(160,0,0)
GPGPU-Sim PTX: 15600000 instructions simulated : ctaid=(191,0,0) tid=(251,0,0)
GPGPU-Sim PTX: 15700000 instructions simulated : ctaid=(204,0,0) tid=(46,0,0)
GPGPU-Sim PTX: 15800000 instructions simulated : ctaid=(188,0,0) tid=(35,0,0)
GPGPU-Sim uArch: cycles simulated: 28000  inst.: 15211700 (ipc=543.3) sim_rate=400307 (inst/sec) elapsed = 0:0:00:38 / Tue Jan 29 09:21:42 2019
GPGPU-Sim uArch: Shader 4 finished CTA #0 (28068,0), 2 CTAs running
GPGPU-Sim uArch: core:  4, cta: 0 initialized @(28069,0)
GPGPU-Sim PTX: 15900000 instructions simulated : ctaid=(213,0,0) tid=(391,0,0)
GPGPU-Sim uArch: Shader 9 finished CTA #0 (28156,0), 2 CTAs running
GPGPU-Sim uArch: core:  9, cta: 0 initialized @(28157,0)
GPGPU-Sim uArch: Shader 2 finished CTA #0 (28224,0), 2 CTAs running
GPGPU-Sim uArch: core:  2, cta: 0 initialized @(28225,0)
GPGPU-Sim PTX: 16000000 instructions simulated : ctaid=(220,0,0) tid=(231,0,0)
GPGPU-Sim PTX: 16100000 instructions simulated : ctaid=(185,0,0) tid=(441,0,0)
GPGPU-Sim uArch: Shader 7 finished CTA #0 (28398,0), 2 CTAs running
GPGPU-Sim uArch: core:  7, cta: 0 initialized @(28399,0)
GPGPU-Sim uArch: cycles simulated: 28500  inst.: 15507875 (ipc=544.1) sim_rate=397637 (inst/sec) elapsed = 0:0:00:39 / Tue Jan 29 09:21:43 2019
GPGPU-Sim PTX: 16200000 instructions simulated : ctaid=(192,0,0) tid=(206,0,0)
GPGPU-Sim PTX: 16300000 instructions simulated : ctaid=(199,0,0) tid=(33,0,0)
GPGPU-Sim uArch: Shader 14 finished CTA #0 (28772,0), 2 CTAs running
GPGPU-Sim uArch: core: 14, cta: 0 initialized @(28773,0)
GPGPU-Sim PTX: 16400000 instructions simulated : ctaid=(222,0,0) tid=(137,0,0)
GPGPU-Sim uArch: Shader 0 finished CTA #0 (28928,0), 2 CTAs running
GPGPU-Sim uArch: core:  0, cta: 0 initialized @(28929,0)
GPGPU-Sim uArch: cycles simulated: 29000  inst.: 15801033 (ipc=544.9) sim_rate=395025 (inst/sec) elapsed = 0:0:00:40 / Tue Jan 29 09:21:44 2019
GPGPU-Sim uArch: Shader 8 finished CTA #0 (29026,0), 2 CTAs running
GPGPU-Sim uArch: core:  8, cta: 0 initialized @(29027,0)
GPGPU-Sim PTX: 16500000 instructions simulated : ctaid=(198,0,0) tid=(364,0,0)
GPGPU-Sim uArch: Shader 1 finished CTA #0 (29065,0), 2 CTAs running
GPGPU-Sim uArch: core:  1, cta: 0 initialized @(29066,0)
GPGPU-Sim uArch: Shader 11 finished CTA #0 (29171,0), 2 CTAs running
GPGPU-Sim uArch: core: 11, cta: 0 initialized @(29172,0)
GPGPU-Sim uArch: Shader 6 finished CTA #0 (29184,0), 2 CTAs running
GPGPU-Sim uArch: core:  6, cta: 0 initialized @(29185,0)
GPGPU-Sim uArch: Shader 3 finished CTA #0 (29193,0), 2 CTAs running
GPGPU-Sim uArch: core:  3, cta: 0 initialized @(29194,0)
GPGPU-Sim PTX: 16600000 instructions simulated : ctaid=(218,0,0) tid=(49,0,0)
GPGPU-Sim uArch: Shader 5 finished CTA #0 (29238,0), 2 CTAs running
GPGPU-Sim uArch: core:  5, cta: 0 initialized @(29239,0)
GPGPU-Sim uArch: Shader 13 finished CTA #0 (29254,0), 2 CTAs running
GPGPU-Sim uArch: core: 13, cta: 0 initialized @(29255,0)
GPGPU-Sim uArch: Shader 10 finished CTA #0 (29288,0), 2 CTAs running
GPGPU-Sim uArch: core: 10, cta: 0 initialized @(29289,0)
GPGPU-Sim uArch: Shader 12 finished CTA #0 (29353,0), 2 CTAs running
GPGPU-Sim uArch: core: 12, cta: 0 initialized @(29354,0)
GPGPU-Sim PTX: 16700000 instructions simulated : ctaid=(230,0,0) tid=(188,0,0)
GPGPU-Sim PTX: 16800000 instructions simulated : ctaid=(210,0,0) tid=(392,0,0)
GPGPU-Sim PTX: 16900000 instructions simulated : ctaid=(222,0,0) tid=(146,0,0)
GPGPU-Sim PTX: 17000000 instructions simulated : ctaid=(230,0,0) tid=(379,0,0)
GPGPU-Sim uArch: cycles simulated: 30000  inst.: 16391037 (ipc=546.4) sim_rate=399781 (inst/sec) elapsed = 0:0:00:41 / Tue Jan 29 09:21:45 2019
GPGPU-Sim PTX: 17100000 instructions simulated : ctaid=(200,0,0) tid=(292,0,0)
GPGPU-Sim uArch: Shader 7 finished CTA #1 (30122,0), 2 CTAs running
GPGPU-Sim uArch: core:  7, cta: 1 initialized @(30123,0)
GPGPU-Sim uArch: Shader 2 finished CTA #1 (30135,0), 2 CTAs running
GPGPU-Sim uArch: core:  2, cta: 1 initialized @(30136,0)
GPGPU-Sim PTX: 17200000 instructions simulated : ctaid=(225,0,0) tid=(80,0,0)
GPGPU-Sim uArch: Shader 4 finished CTA #1 (30318,0), 2 CTAs running
GPGPU-Sim uArch: core:  4, cta: 1 initialized @(30319,0)
GPGPU-Sim PTX: 17300000 instructions simulated : ctaid=(226,0,0) tid=(291,0,0)
GPGPU-Sim uArch: Shader 9 finished CTA #1 (30359,0), 2 CTAs running
GPGPU-Sim uArch: core:  9, cta: 1 initialized @(30360,0)
GPGPU-Sim uArch: cycles simulated: 30500  inst.: 16689799 (ipc=547.2) sim_rate=397376 (inst/sec) elapsed = 0:0:00:42 / Tue Jan 29 09:21:46 2019
GPGPU-Sim PTX: 17400000 instructions simulated : ctaid=(233,0,0) tid=(39,0,0)
GPGPU-Sim uArch: Shader 6 finished CTA #1 (30641,0), 2 CTAs running
GPGPU-Sim uArch: core:  6, cta: 1 initialized @(30642,0)
GPGPU-Sim uArch: Shader 14 finished CTA #1 (30656,0), 2 CTAs running
GPGPU-Sim uArch: core: 14, cta: 1 initialized @(30657,0)
GPGPU-Sim PTX: 17500000 instructions simulated : ctaid=(211,0,0) tid=(104,0,0)
GPGPU-Sim uArch: Shader 8 finished CTA #1 (30744,0), 2 CTAs running
GPGPU-Sim uArch: core:  8, cta: 1 initialized @(30745,0)
GPGPU-Sim PTX: 17600000 instructions simulated : ctaid=(226,0,0) tid=(124,0,0)
GPGPU-Sim uArch: Shader 13 finished CTA #1 (30993,0), 2 CTAs running
GPGPU-Sim uArch: core: 13, cta: 1 initialized @(30994,0)
GPGPU-Sim uArch: cycles simulated: 31000  inst.: 16974959 (ipc=547.6) sim_rate=394766 (inst/sec) elapsed = 0:0:00:43 / Tue Jan 29 09:21:47 2019
GPGPU-Sim PTX: 17700000 instructions simulated : ctaid=(229,0,0) tid=(252,0,0)
GPGPU-Sim uArch: Shader 0 finished CTA #1 (31053,0), 2 CTAs running
GPGPU-Sim uArch: core:  0, cta: 1 initialized @(31054,0)
GPGPU-Sim uArch: Shader 5 finished CTA #1 (31089,0), 2 CTAs running
GPGPU-Sim uArch: core:  5, cta: 1 initialized @(31090,0)
GPGPU-Sim uArch: Shader 1 finished CTA #1 (31101,0), 2 CTAs running
GPGPU-Sim uArch: core:  1, cta: 1 initialized @(31102,0)
GPGPU-Sim PTX: 17800000 instructions simulated : ctaid=(234,0,0) tid=(114,0,0)
GPGPU-Sim uArch: Shader 3 finished CTA #1 (31202,0), 2 CTAs running
GPGPU-Sim uArch: core:  3, cta: 1 initialized @(31203,0)
GPGPU-Sim uArch: Shader 11 finished CTA #1 (31282,0), 2 CTAs running
GPGPU-Sim uArch: core: 11, cta: 1 initialized @(31283,0)
GPGPU-Sim uArch: Shader 12 finished CTA #1 (31314,0), 2 CTAs running
GPGPU-Sim uArch: core: 12, cta: 1 initialized @(31315,0)
GPGPU-Sim uArch: Shader 10 finished CTA #1 (31319,0), 2 CTAs running
GPGPU-Sim uArch: core: 10, cta: 1 initialized @(31320,0)
GPGPU-Sim PTX: 17900000 instructions simulated : ctaid=(254,0,0) tid=(337,0,0)
GPGPU-Sim PTX: 18000000 instructions simulated : ctaid=(237,0,0) tid=(246,0,0)
GPGPU-Sim PTX: 18100000 instructions simulated : ctaid=(224,0,0) tid=(321,0,0)
GPGPU-Sim PTX: 18200000 instructions simulated : ctaid=(243,0,0) tid=(66,0,0)
GPGPU-Sim PTX: 18300000 instructions simulated : ctaid=(254,0,0) tid=(46,0,0)
GPGPU-Sim uArch: cycles simulated: 32000  inst.: 17577152 (ipc=549.3) sim_rate=399480 (inst/sec) elapsed = 0:0:00:44 / Tue Jan 29 09:21:48 2019
GPGPU-Sim uArch: Shader 2 finished CTA #2 (32050,0), 2 CTAs running
GPGPU-Sim uArch: core:  2, cta: 2 initialized @(32051,0)
GPGPU-Sim PTX: 18400000 instructions simulated : ctaid=(224,0,0) tid=(238,0,0)
GPGPU-Sim uArch: Shader 7 finished CTA #2 (32181,0), 2 CTAs running
GPGPU-Sim uArch: core:  7, cta: 2 initialized @(32182,0)
GPGPU-Sim uArch: Shader 4 finished CTA #2 (32242,0), 2 CTAs running
GPGPU-Sim uArch: core:  4, cta: 2 initialized @(32243,0)
GPGPU-Sim PTX: 18500000 instructions simulated : ctaid=(236,0,0) tid=(158,0,0)
GPGPU-Sim uArch: Shader 9 finished CTA #2 (32374,0), 2 CTAs running
GPGPU-Sim uArch: core:  9, cta: 2 initialized @(32375,0)
GPGPU-Sim PTX: 18600000 instructions simulated : ctaid=(239,0,0) tid=(146,0,0)
GPGPU-Sim uArch: cycles simulated: 32500  inst.: 17874963 (ipc=550.0) sim_rate=397221 (inst/sec) elapsed = 0:0:00:45 / Tue Jan 29 09:21:49 2019
GPGPU-Sim uArch: Shader 14 finished CTA #2 (32533,0), 2 CTAs running
GPGPU-Sim uArch: core: 14, cta: 2 initialized @(32534,0)
GPGPU-Sim PTX: 18700000 instructions simulated : ctaid=(222,0,0) tid=(338,0,0)
GPGPU-Sim PTX: 18800000 instructions simulated : ctaid=(235,0,0) tid=(37,0,0)
GPGPU-Sim uArch: Shader 8 finished CTA #2 (32860,0), 2 CTAs running
GPGPU-Sim uArch: core:  8, cta: 2 initialized @(32861,0)
GPGPU-Sim uArch: Shader 11 finished CTA #2 (32872,0), 2 CTAs running
GPGPU-Sim uArch: core: 11, cta: 2 initialized @(32873,0)
GPGPU-Sim uArch: Shader 6 finished CTA #2 (32890,0), 2 CTAs running
GPGPU-Sim uArch: core:  6, cta: 2 initialized @(32891,0)
GPGPU-Sim PTX: 18900000 instructions simulated : ctaid=(230,0,0) tid=(485,0,0)
GPGPU-Sim uArch: cycles simulated: 33000  inst.: 18152091 (ipc=550.1) sim_rate=394610 (inst/sec) elapsed = 0:0:00:46 / Tue Jan 29 09:21:50 2019
GPGPU-Sim uArch: Shader 0 finished CTA #2 (33101,0), 2 CTAs running
GPGPU-Sim uArch: core:  0, cta: 2 initialized @(33102,0)
GPGPU-Sim uArch: Shader 10 finished CTA #2 (33123,0), 2 CTAs running
GPGPU-Sim uArch: core: 10, cta: 2 initialized @(33124,0)
GPGPU-Sim uArch: Shader 13 finished CTA #2 (33127,0), 2 CTAs running
GPGPU-Sim uArch: core: 13, cta: 2 initialized @(33128,0)
GPGPU-Sim uArch: Shader 12 finished CTA #2 (33135,0), 2 CTAs running
GPGPU-Sim uArch: core: 12, cta: 2 initialized @(33136,0)
GPGPU-Sim PTX: 19000000 instructions simulated : ctaid=(255,0,0) tid=(304,0,0)
GPGPU-Sim uArch: Shader 1 finished CTA #2 (33179,0), 2 CTAs running
GPGPU-Sim uArch: core:  1, cta: 2 initialized @(33180,0)
GPGPU-Sim uArch: Shader 5 finished CTA #2 (33181,0), 2 CTAs running
GPGPU-Sim uArch: core:  5, cta: 2 initialized @(33182,0)
GPGPU-Sim uArch: Shader 3 finished CTA #2 (33187,0), 2 CTAs running
GPGPU-Sim uArch: core:  3, cta: 2 initialized @(33188,0)
GPGPU-Sim PTX: 19100000 instructions simulated : ctaid=(239,0,0) tid=(341,0,0)
GPGPU-Sim PTX: 19200000 instructions simulated : ctaid=(228,0,0) tid=(155,0,0)
GPGPU-Sim PTX: 19300000 instructions simulated : ctaid=(238,0,0) tid=(446,0,0)
GPGPU-Sim PTX: 19400000 instructions simulated : ctaid=(268,0,0) tid=(3,0,0)
GPGPU-Sim uArch: Shader 4 finished CTA #0 (33826,0), 2 CTAs running
GPGPU-Sim uArch: core:  4, cta: 0 initialized @(33827,0)
GPGPU-Sim uArch: Shader 9 finished CTA #0 (33946,0), 2 CTAs running
GPGPU-Sim uArch: core:  9, cta: 0 initialized @(33947,0)
GPGPU-Sim PTX: 19500000 instructions simulated : ctaid=(242,0,0) tid=(271,0,0)
GPGPU-Sim uArch: cycles simulated: 34000  inst.: 18746670 (ipc=551.4) sim_rate=398865 (inst/sec) elapsed = 0:0:00:47 / Tue Jan 29 09:21:51 2019
GPGPU-Sim PTX: 19600000 instructions simulated : ctaid=(254,0,0) tid=(354,0,0)
GPGPU-Sim uArch: Shader 7 finished CTA #0 (34150,0), 2 CTAs running
GPGPU-Sim uArch: core:  7, cta: 0 initialized @(34151,0)
GPGPU-Sim uArch: Shader 2 finished CTA #0 (34164,0), 2 CTAs running
GPGPU-Sim uArch: core:  2, cta: 0 initialized @(34165,0)
GPGPU-Sim PTX: 19700000 instructions simulated : ctaid=(271,0,0) tid=(479,0,0)
GPGPU-Sim PTX: 19800000 instructions simulated : ctaid=(247,0,0) tid=(269,0,0)
GPGPU-Sim uArch: Shader 0 finished CTA #0 (34454,0), 2 CTAs running
GPGPU-Sim uArch: core:  0, cta: 0 initialized @(34455,0)
GPGPU-Sim uArch: cycles simulated: 34500  inst.: 19041327 (ipc=551.9) sim_rate=396694 (inst/sec) elapsed = 0:0:00:48 / Tue Jan 29 09:21:52 2019
GPGPU-Sim PTX: 19900000 instructions simulated : ctaid=(257,0,0) tid=(372,0,0)
GPGPU-Sim uArch: Shader 14 finished CTA #0 (34622,0), 2 CTAs running
GPGPU-Sim uArch: core: 14, cta: 0 initialized @(34623,0)
GPGPU-Sim uArch: Shader 8 finished CTA #0 (34633,0), 2 CTAs running
GPGPU-Sim uArch: core:  8, cta: 0 initialized @(34634,0)
GPGPU-Sim uArch: Shader 1 finished CTA #0 (34637,0), 2 CTAs running
GPGPU-Sim uArch: core:  1, cta: 0 initialized @(34638,0)
GPGPU-Sim PTX: 20000000 instructions simulated : ctaid=(276,0,0) tid=(215,0,0)
GPGPU-Sim uArch: Shader 6 finished CTA #0 (34793,0), 2 CTAs running
GPGPU-Sim uArch: core:  6, cta: 0 initialized @(34794,0)
GPGPU-Sim uArch: Shader 13 finished CTA #0 (34841,0), 2 CTAs running
GPGPU-Sim uArch: core: 13, cta: 0 initialized @(34842,0)
GPGPU-Sim uArch: Shader 5 finished CTA #0 (34879,0), 2 CTAs running
GPGPU-Sim uArch: core:  5, cta: 0 initialized @(34880,0)
GPGPU-Sim PTX: 20100000 instructions simulated : ctaid=(247,0,0) tid=(332,0,0)
GPGPU-Sim uArch: Shader 10 finished CTA #0 (34984,0), 2 CTAs running
GPGPU-Sim uArch: core: 10, cta: 0 initialized @(34985,0)
GPGPU-Sim uArch: cycles simulated: 35000  inst.: 19332882 (ipc=552.4) sim_rate=394548 (inst/sec) elapsed = 0:0:00:49 / Tue Jan 29 09:21:53 2019
GPGPU-Sim uArch: Shader 11 finished CTA #0 (35003,0), 2 CTAs running
GPGPU-Sim uArch: core: 11, cta: 0 initialized @(35004,0)
GPGPU-Sim uArch: Shader 12 finished CTA #0 (35028,0), 2 CTAs running
GPGPU-Sim uArch: core: 12, cta: 0 initialized @(35029,0)
GPGPU-Sim uArch: Shader 3 finished CTA #0 (35048,0), 2 CTAs running
GPGPU-Sim uArch: core:  3, cta: 0 initialized @(35049,0)
GPGPU-Sim PTX: 20200000 instructions simulated : ctaid=(266,0,0) tid=(422,0,0)
GPGPU-Sim PTX: 20300000 instructions simulated : ctaid=(280,0,0) tid=(498,0,0)
GPGPU-Sim PTX: 20400000 instructions simulated : ctaid=(276,0,0) tid=(257,0,0)
GPGPU-Sim uArch: cycles simulated: 35500  inst.: 19638850 (ipc=553.2) sim_rate=392777 (inst/sec) elapsed = 0:0:00:50 / Tue Jan 29 09:21:54 2019
GPGPU-Sim PTX: 20500000 instructions simulated : ctaid=(247,0,0) tid=(45,0,0)
GPGPU-Sim PTX: 20600000 instructions simulated : ctaid=(252,0,0) tid=(361,0,0)
GPGPU-Sim uArch: Shader 7 finished CTA #1 (35810,0), 2 CTAs running
GPGPU-Sim uArch: core:  7, cta: 1 initialized @(35811,0)
GPGPU-Sim uArch: Shader 4 finished CTA #1 (35870,0), 2 CTAs running
GPGPU-Sim PTX: 20700000 instructions simulated : ctaid=(276,0,0) tid=(295,0,0)
GPGPU-Sim uArch: core:  4, cta: 1 initialized @(35871,0)
GPGPU-Sim uArch: Shader 2 finished CTA #1 (35978,0), 2 CTAs running
GPGPU-Sim uArch: core:  2, cta: 1 initialized @(35979,0)
GPGPU-Sim uArch: Shader 9 finished CTA #1 (36018,0), 2 CTAs running
GPGPU-Sim uArch: core:  9, cta: 1 initialized @(36019,0)
GPGPU-Sim PTX: 20800000 instructions simulated : ctaid=(267,0,0) tid=(448,0,0)
GPGPU-Sim PTX: 20900000 instructions simulated : ctaid=(249,0,0) tid=(396,0,0)
GPGPU-Sim uArch: Shader 14 finished CTA #1 (36268,0), 2 CTAs running
GPGPU-Sim uArch: core: 14, cta: 1 initialized @(36269,0)
GPGPU-Sim PTX: 21000000 instructions simulated : ctaid=(272,0,0) tid=(428,0,0)
GPGPU-Sim uArch: Shader 6 finished CTA #1 (36399,0), 2 CTAs running
GPGPU-Sim uArch: core:  6, cta: 1 initialized @(36400,0)
GPGPU-Sim uArch: Shader 8 finished CTA #1 (36495,0), 2 CTAs running
GPGPU-Sim uArch: core:  8, cta: 1 initialized @(36496,0)
GPGPU-Sim uArch: cycles simulated: 36500  inst.: 20240527 (ipc=554.5) sim_rate=396873 (inst/sec) elapsed = 0:0:00:51 / Tue Jan 29 09:21:55 2019
GPGPU-Sim PTX: 21100000 instructions simulated : ctaid=(262,0,0) tid=(180,0,0)
GPGPU-Sim uArch: Shader 0 finished CTA #1 (36594,0), 2 CTAs running
GPGPU-Sim uArch: core:  0, cta: 1 initialized @(36595,0)
GPGPU-Sim PTX: 21200000 instructions simulated : ctaid=(262,0,0) tid=(492,0,0)
GPGPU-Sim uArch: Shader 1 finished CTA #1 (36812,0), 2 CTAs running
GPGPU-Sim uArch: core:  1, cta: 1 initialized @(36813,0)
GPGPU-Sim uArch: Shader 11 finished CTA #1 (36825,0), 2 CTAs running
GPGPU-Sim uArch: core: 11, cta: 1 initialized @(36826,0)
GPGPU-Sim PTX: 21300000 instructions simulated : ctaid=(291,0,0) tid=(246,0,0)
GPGPU-Sim uArch: Shader 13 finished CTA #1 (36887,0), 2 CTAs running
GPGPU-Sim uArch: core: 13, cta: 1 initialized @(36888,0)
GPGPU-Sim uArch: Shader 3 finished CTA #1 (36905,0), 2 CTAs running
GPGPU-Sim uArch: core:  3, cta: 1 initialized @(36906,0)
GPGPU-Sim uArch: Shader 10 finished CTA #1 (36925,0), 2 CTAs running
GPGPU-Sim uArch: core: 10, cta: 1 initialized @(36926,0)
GPGPU-Sim uArch: Shader 5 finished CTA #1 (36937,0), 2 CTAs running
GPGPU-Sim uArch: core:  5, cta: 1 initialized @(36938,0)
GPGPU-Sim uArch: cycles simulated: 37000  inst.: 20522479 (ipc=554.7) sim_rate=394663 (inst/sec) elapsed = 0:0:00:52 / Tue Jan 29 09:21:56 2019
[...]
gpgpu_stall_shd_mem[l_mem_ld][mshr_rc] = 0
gpgpu_stall_shd_mem[l_mem_ld][icnt_rc] = 0
gpgpu_stall_shd_mem[l_mem_ld][wb_icnt_rc] = 0
gpgpu_stall_shd_mem[l_mem_ld][wb_rsrv_fail] = 0
gpgpu_stall_shd_mem[l_mem_st][mshr_rc] = 0
gpgpu_stall_shd_mem[l_mem_st][icnt_rc] = 0
gpgpu_stall_shd_mem[l_mem_ld][wb_icnt_rc] = 0
gpgpu_stall_shd_mem[l_mem_ld][wb_rsrv_fail] = 0
gpu_reg_bank_conflict_stalls = 0
Warp Occupancy Distribution:
Stall:150083	W0_Idle:46560	W0_Scoreboard:306643	W1:363444	W2:187584	W3:0	W4:187584	W5:0	W6:0	W7:0	W8:187584	W9:0	W10:0	W11:0	W12:0	W13:0	W14:0	W15:0	W16:187584	W17:0	W18:0	W19:0	W20:0	W21:0	W22:0	W23:0	W24:0	W25:0	W26:0	W27:0	W28:0	W29:0	W30:0	W31:0	W32:2204112
traffic_breakdown_coretomem[CONST_ACC_R] = 120 {8:15,}
traffic_breakdown_coretomem[GLOBAL_ACC_R] = 250112 {8:31264,}
traffic_breakdown_coretomem[GLOBAL_ACC_W] = 625280 {40:15632,}
traffic_breakdown_coretomem[INST_ACC_R] = 600 {8:75,}
traffic_breakdown_memtocore[CONST_ACC_R] = 1080 {72:15,}
traffic_breakdown_memtocore[GLOBAL_ACC_R] = 4251904 {136:31264,}
traffic_breakdown_memtocore[GLOBAL_ACC_W] = 125056 {8:15632,}
traffic_breakdown_memtocore[INST_ACC_R] = 10200 {136:75,}
maxmrqlatency = 199 
maxdqlatency = 0 
maxmflatency = 891 
averagemflatency = 251 
max_icnt2mem_latency = 662 
max_icnt2sh_latency = 128306 
mrq_lat_table:28560 	1028 	494 	444 	538 	242 	123 	19 	0 	0 	0 	0 	0 	0 	0 	0 	0 	0 	0 	0 	0 	0 	0 	0 	0 	0 	0 	0 	0 	0 	0 	0 	
dq_lat_table:0 	0 	0 	0 	0 	0 	0 	0 	0 	0 	0 	0 	0 	0 	0 	0 	0 	0 	0 	0 	0 	0 	0 	0 	0 	0 	0 	0 	0 	0 	0 	0 	
mf_lat_table:0 	0 	0 	0 	0 	0 	0 	13204 	32682 	1025 	0 	0 	0 	0 	0 	0 	0 	0 	0 	0 	0 	0 	0 	0 	0 	0 	0 	0 	0 	0 	0 	0 	
icnt2mem_lat_table:0 	0 	0 	33580 	4786 	3813 	2577 	1405 	692 	133 	0 	0 	0 	0 	0 	0 	0 	0 	0 	0 	0 	0 	0 	0 	
icnt2sh_lat_table:0 	0 	0 	22419 	7419 	1318 	123 	0 	0 	0 	0 	0 	495 	945 	2031 	4174 	7987 	0 	0 	0 	0 	0 	0 	0 	
mf_lat_pw_table:0 	0 	0 	0 	0 	0 	0 	203 	46 	1 	0 	0 	0 	0 	0 	0 	0 	0 	0 	0 	0 	0 	0 	0 	0 	0 	0 	0 	0 	0 	0 	0 	
maximum concurrent accesses to same row:
dram[0]:        32        32        32        32        32        32        32        32        32        32        32        32        32        32        32        32 
dram[1]:        32        32        32        32        32        32        32        32        32        32        32        32        32        32        32        32 
dram[2]:        32        32        32        32        32        32        32        32        32        32        32        32        32        32        32        32 
dram[3]:        32        32        32        32        32        32        32        32        32        32        32        32        32        32        32        32 
dram[4]:        32        32        32        32        32        32        32        32        32        32        32        32        32        32        32        32 
dram[5]:        32        32        32        32        32        32        32        32        32        32        32        32        32        32        32        32 
maximum service time to same row:
dram[0]:     12983     12679     13090     13087     14146     14236     12754     12794     12979     13103     14425     14422     16264     16346     12786     12742 
dram[1]:     12837     12699     13118     13088     14139     14307     12803     12747     13003     13138     14446     14464     16310     16430     12809     12731 
dram[2]:     12828     12657     13107     13053     14157     14156     12782     12780     13053     13152     14423     14489     16416     16429     12791     12525 
dram[3]:     12866     12578     13085     13053     14163     14157     12865     12770     13062     12687     14444     14544     16416     16466     12744     12505 
dram[4]:     12781     12605     13065     13063     14144     14175     12811     12868     13104     12956     14430     14641     16340     16425     12706     12490 
dram[5]:     12744     12766     13082     13000     14204     14114     12782     12821     13105     13188     14431     14762     16344     16266     12699     12494 
average row accesses per activate:
dram[0]: 24.846153 32.000000 32.000000 32.000000 30.000000 30.000000 32.000000 32.000000 26.230770 25.692308 32.000000 32.000000 32.000000 32.000000 32.000000 32.000000 
dram[1]: 29.272728 32.000000 32.000000 32.000000 30.000000 30.000000 32.000000 32.000000 21.000000 22.266666 32.000000 32.000000 32.000000 32.000000 32.000000 32.000000 
dram[2]: 29.181818 32.000000 32.000000 32.000000 30.000000 30.181818 32.000000 32.000000 22.400000 27.750000 32.000000 32.000000 32.000000 32.000000 32.000000 32.000000 
dram[3]: 32.000000 32.000000 32.000000 32.000000 30.000000 30.181818 32.000000 32.000000 25.846153 24.571428 32.000000 32.000000 32.000000 32.000000 32.000000 32.000000 
dram[4]: 32.000000 32.000000 32.000000 32.000000 30.000000 30.181818 32.000000 32.000000 20.875000 20.235294 32.000000 32.000000 32.000000 32.000000 32.000000 32.000000 
dram[5]: 32.000000 32.000000 32.000000 32.000000 30.000000 30.181818 32.000000 32.000000 23.857143 22.933332 32.000000 32.000000 32.000000 32.000000 32.000000 32.000000 
average row locality = 31448/1042 = 30.180422
number of total memory accesses made:
dram[0]:         0         0         0         0         0         0         0         0         0         0         0         0         0         0         0         0 
dram[1]:         0         0         0         0         0         0         0         0         0         0         0         0         0         0         0         0 
dram[2]:         0         0         0         0         0         0         0         0         0         0         0         0         0         0         0         0 
dram[3]:         0         0         0         0         0         0         0         0         0         0         0         0         0         0         0         0 
dram[4]:         0         0         0         0         0         0         0         0         0         0         0         0         0         0         0         0 
dram[5]:         0         0         0         0         0         0         0         0         0         0         0         0         0         0         0         0 
total accesses: 0
min_bank_accesses = 0!
min_chip_accesses = 0!
number of total read accesses:
dram[0]:       323       320       320       320       330       330       352       352       327       324       320       320       320       320       320       320 
dram[1]:       322       320       320       320       330       330       352       352       326       324       320       320       320       320       320       320 
dram[2]:       321       320       320       320       330       332       352       352       326       324       320       320       320       320       320       320 
dram[3]:       320       320       320       320       330       332       352       352       326       326       320       320       320       320       320       320 
dram[4]:       320       320       320       320       330       332       352       352       324       326       320       320       320       320       320       320 
dram[5]:       320       320       320       320       330       332       352       352       324       326       320       320       320       320       320       320 
total reads: 31301
bank skew: 352/320 = 1.10
chip skew: 5218/5216 = 1.00
number of total write accesses:
dram[0]:         0         0         0         0         0         0         0         0        14        10         0         0         0         0         0         0 
dram[1]:         0         0         0         0         0         0         0         0        10        10         0         0         0         0         0         0 
dram[2]:         0         0         0         0         0         0         0         0        10         9         0         0         0         0         0         0 
dram[3]:         0         0         0         0         0         0         0         0        10        18         0         0         0         0         0         0 
dram[4]:         0         0         0         0         0         0         0         0        10        18         0         0         0         0         0         0 
dram[5]:         0         0         0         0         0         0         0         0        10        18         0         0         0         0         0         0 
total reads: 147
min_bank_accesses = 0!
chip skew: 28/19 = 1.47
average mf latency per bank:
dram[0]:        282       277       263       264       265       266       277       281       954       830       274       280       278       282       287       287
dram[1]:        271       271       263       265       266       268       280       284       821       809       289       286       285       288       288       283
dram[2]:        275       270       264       265       268       265       282       283       880       811       286       285       284       282       287       290
dram[3]:        278       276       264       266       267       266       279       281       881      1881       277       288       281       282       285       293
dram[4]:        277       272       265       265       265       269       279       286       808      1446       282       286       282       282       283       284
dram[5]:        279       273       264       264       265       267       281       283       873      1389       280       281       283       281       285       287
maximum mf latency per bank:
dram[0]:        789       803       329       359       473       443       609       589       661       536       673       594       715       758       797       808
dram[1]:        826       762       316       393       497       505       613       617       641       587       677       692       798       883       751       686
dram[2]:        794       733       344       469       419       480       626       653       621       613       647       714       790       848       770       799
dram[3]:        713       845       452       443       494       534       533       657       537       852       555       737       806       777       644       818
dram[4]:        759       891       347       409       364       469       627       661       670       660       564       729       782       724       644       726
dram[5]:        822       847       335       378       369       460       607       641       635       550       683       585       824       723       697       672
Memory Partition 0: 
Cache L2_bank_000:
MSHR contents

Cache L2_bank_001:
MSHR contents

In Dram Latency Queue (total = 0): 
DRAM[0]: 16 bks, busW=4 BL=8 CL=12, tRRD=2 tCCD=6, tRCD=12 tRAS=28 tRP=12 tRC=40
n_cmd=169364 n_nop=158570 n_act=173 n_pre=157 n_req=5242 n_rd=10436 n_write=28 bw_util=0.1236
n_activity=63823 dram_eff=0.3279
bk0: 646a 167606i bk1: 640a 167487i bk2: 640a 167596i bk3: 640a 167483i bk4: 660a 167488i bk5: 660a 167402i bk6: 704a 167340i bk7: 704a 166943i bk8: 654a 167318i bk9: 648a 167197i bk10: 640a 167346i bk11: 640a 167011i bk12: 640a 167279i bk13: 640a 167257i bk14: 640a 167579i bk15: 640a 167364i 
dram_util_bins: 0 0 0 0 0 0 0 0 0 0
dram_eff_bins: 0 0 0 0 0 0 0 0 0 0
mrqq: max=16 avg=0.0495088
Memory Partition 1: 
Cache L2_bank_002:
MSHR contents

Cache L2_bank_003:
MSHR contents

In Dram Latency Queue (total = 0): 
DRAM[1]: 16 bks, busW=4 BL=8 CL=12, tRRD=2 tCCD=6, tRCD=12 tRAS=28 tRP=12 tRC=40
n_cmd=169364 n_nop=158572 n_act=176 n_pre=160 n_req=5236 n_rd=10432 n_write=24 bw_util=0.1235
n_activity=64337 dram_eff=0.325
bk0: 644a 167644i bk1: 640a 167541i bk2: 640a 167644i bk3: 640a 167576i bk4: 660a 167563i bk5: 660a 167433i bk6: 704a 167418i bk7: 704a 166899i bk8: 652a 167244i bk9: 648a 167065i bk10: 640a 167136i bk11: 640a 167067i bk12: 640a 167367i bk13: 640a 167267i bk14: 640a 167558i bk15: 640a 167358i 
dram_util_bins: 0 0 0 0 0 0 0 0 0 0
dram_eff_bins: 0 0 0 0 0 0 0 0 0 0
mrqq: max=16 avg=0.0525968
Memory Partition 2: 
Cache L2_bank_004:
MSHR contents

Cache L2_bank_005:
MSHR contents

In Dram Latency Queue (total = 0): 
DRAM[2]: 16 bks, busW=4 BL=8 CL=12, tRRD=2 tCCD=6, tRCD=12 tRAS=28 tRP=12 tRC=40
n_cmd=169364 n_nop=158580 n_act=172 n_pre=156 n_req=5236 n_rd=10434 n_write=22 bw_util=0.1235
n_activity=63656 dram_eff=0.3285
bk0: 642a 167632i bk1: 640a 167466i bk2: 640a 167634i bk3: 640a 167481i bk4: 660a 167459i bk5: 664a 167337i bk6: 704a 167389i bk7: 704a 167025i bk8: 652a 167385i bk9: 648a 167107i bk10: 640a 167235i bk11: 640a 167089i bk12: 640a 167127i bk13: 640a 167307i bk14: 640a 167554i bk15: 640a 167307i 
dram_util_bins: 0 0 0 0 0 0 0 0 0 0
dram_eff_bins: 0 0 0 0 0 0 0 0 0 0
mrqq: max=16 avg=0.0608512
Memory Partition 3: 
Cache L2_bank_006:
MSHR contents

Cache L2_bank_007:
MSHR contents

In Dram Latency Queue (total = 0): 
DRAM[3]: 16 bks, busW=4 BL=8 CL=12, tRRD=2 tCCD=6, tRCD=12 tRAS=28 tRP=12 tRC=40
n_cmd=169364 n_nop=158570 n_act=171 n_pre=155 n_req=5246 n_rd=10436 n_write=32 bw_util=0.1236
n_activity=64064 dram_eff=0.3268
bk0: 640a 167650i bk1: 640a 167492i bk2: 640a 167662i bk3: 640a 167470i bk4: 660a 167477i bk5: 664a 167418i bk6: 704a 167368i bk7: 704a 167053i bk8: 652a 167441i bk9: 652a 167083i bk10: 640a 167304i bk11: 640a 167067i bk12: 640a 167427i bk13: 640a 167369i bk14: 640a 167531i bk15: 640a 167297i 
dram_util_bins: 0 0 0 0 0 0 0 0 0 0
dram_eff_bins: 0 0 0 0 0 0 0 0 0 0
mrqq: max=16 avg=0.0551829
Memory Partition 4: 
Cache L2_bank_008:
MSHR contents

Cache L2_bank_009:
MSHR contents

In Dram Latency Queue (total = 0): 
DRAM[4]: 16 bks, busW=4 BL=8 CL=12, tRRD=2 tCCD=6, tRCD=12 tRAS=28 tRP=12 tRC=40
n_cmd=169364 n_nop=158562 n_act=177 n_pre=161 n_req=5244 n_rd=10432 n_write=32 bw_util=0.1236
n_activity=63344 dram_eff=0.3304
bk0: 640a 167635i bk1: 640a 167474i bk2: 640a 167623i bk3: 640a 167475i bk4: 660a 167441i bk5: 664a 167431i bk6: 704a 167264i bk7: 704a 167123i bk8: 648a 167229i bk9: 652a 166916i bk10: 640a 167184i bk11: 640a 166872i bk12: 640a 167196i bk13: 640a 167226i bk14: 640a 167529i bk15: 640a 167286i 
dram_util_bins: 0 0 0 0 0 0 0 0 0 0
dram_eff_bins: 0 0 0 0 0 0 0 0 0 0
mrqq: max=16 avg=0.0711249
Memory Partition 5: 
Cache L2_bank_010:
MSHR contents

Cache L2_bank_011:
MSHR contents

In Dram Latency Queue (total = 0): 
DRAM[5]: 16 bks, busW=4 BL=8 CL=12, tRRD=2 tCCD=6, tRCD=12 tRAS=28 tRP=12 tRC=40
n_cmd=169364 n_nop=158570 n_act=173 n_pre=157 n_req=5244 n_rd=10432 n_write=32 bw_util=0.1236
n_activity=64049 dram_eff=0.3267
bk0: 640a 167641i bk1: 640a 167557i bk2: 640a 167669i bk3: 640a 167498i bk4: 660a 167534i bk5: 664a 167455i bk6: 704a 167289i bk7: 704a 166993i bk8: 648a 167332i bk9: 652a 167002i bk10: 640a 167100i bk11: 640a 167012i bk12: 640a 167197i bk13: 640a 167335i bk14: 640a 167533i bk15: 640a 167387i 
dram_util_bins: 0 0 0 0 0 0 0 0 0 0
dram_eff_bins: 0 0 0 0 0 0 0 0 0 0
mrqq: max=16 avg=0.057899

========= L2 cache stats =========
L2_cache_bank[0]: Access = 3947, Miss = 2612, Miss_rate = 0.662, Pending_hits = 18, Reservation_fails = 683
L2_cache_bank[1]: Access = 3628, Miss = 2606, Miss_rate = 0.718, Pending_hits = 6, Reservation_fails = 255
L2_cache_bank[2]: Access = 3660, Miss = 2610, Miss_rate = 0.713, Pending_hits = 11, Reservation_fails = 432
L2_cache_bank[3]: Access = 3628, Miss = 2606, Miss_rate = 0.718, Pending_hits = 6, Reservation_fails = 265
L2_cache_bank[4]: Access = 3645, Miss = 2609, Miss_rate = 0.716, Pending_hits = 9, Reservation_fails = 342
L2_cache_bank[5]: Access = 3630, Miss = 2608, Miss_rate = 0.718, Pending_hits = 6, Reservation_fails = 325
L2_cache_bank[6]: Access = 3630, Miss = 2608, Miss_rate = 0.718, Pending_hits = 6, Reservation_fails = 269
L2_cache_bank[7]: Access = 4654, Miss = 2610, Miss_rate = 0.561, Pending_hits = 12, Reservation_fails = 571
L2_cache_bank[8]: Access = 3628, Miss = 2606, Miss_rate = 0.718, Pending_hits = 6, Reservation_fails = 324
L2_cache_bank[9]: Access = 4654, Miss = 2610, Miss_rate = 0.561, Pending_hits = 12, Reservation_fails = 556
L2_cache_bank[10]: Access = 3628, Miss = 2606, Miss_rate = 0.718, Pending_hits = 6, Reservation_fails = 264
L2_cache_bank[11]: Access = 4654, Miss = 2610, Miss_rate = 0.561, Pending_hits = 12, Reservation_fails = 478
L2_total_cache_accesses = 46986
L2_total_cache_misses = 31301
L2_total_cache_miss_rate = 0.6662
L2_total_cache_pending_hits = 110
L2_total_cache_reservation_fails = 4764
L2_total_cache_breakdown:
	L2_cache_stats_breakdown[GLOBAL_ACC_R][MISS] = 31264
	L2_cache_stats_breakdown[GLOBAL_ACC_R][RESERVATION_FAIL] = 615
	L2_cache_stats_breakdown[CONST_ACC_R][HIT] = 11
	L2_cache_stats_breakdown[CONST_ACC_R][HIT_RESERVED] = 3
	L2_cache_stats_breakdown[CONST_ACC_R][MISS] = 1
	L2_cache_stats_breakdown[CONST_ACC_R][RESERVATION_FAIL] = 108
	L2_cache_stats_breakdown[GLOBAL_ACC_W][HIT] = 15508
	L2_cache_stats_breakdown[GLOBAL_ACC_W][HIT_RESERVED] = 93
	L2_cache_stats_breakdown[GLOBAL_ACC_W][MISS] = 31
	L2_cache_stats_breakdown[GLOBAL_ACC_W][RESERVATION_FAIL] = 3624
	L2_cache_stats_breakdown[INST_ACC_R][HIT] = 56
	L2_cache_stats_breakdown[INST_ACC_R][HIT_RESERVED] = 14
	L2_cache_stats_breakdown[INST_ACC_R][MISS] = 5
	L2_cache_stats_breakdown[INST_ACC_R][RESERVATION_FAIL] = 417
L2_cache_data_port_util = 0.010
L2_cache_fill_port_util = 0.081

icnt_total_pkts_mem_to_simt=172372
icnt_total_pkts_simt_to_mem=62618
LD_mem_lat_dist  0 0 0 0 0 0 0 0 0 0 0 0 0 0 0 0 0 0 0 0 0 0 0 0 0 0 0
ST_mem_lat_dist  0 0 0 0 0 0 0 0 0 0 0 0 0 0 0 0 0 0 0 0 0 0 0 0 0 0 0
----------------------------Interconnect-DETAILS--------------------------------
Class 0:
Packet latency average = 17.5938
	minimum = 6
	maximum = 446
Network latency average = 13.6061
	minimum = 6
	maximum = 258
Slowest packet = 3112
Flit latency average = 11.4222
	minimum = 6
	maximum = 257
Slowest flit = 12485
Fragmentation average = 0.00648065
	minimum = 0
	maximum = 126
Injected packet rate average = 0.0271259
	minimum = 0.0243634 (at node 0)
	maximum = 0.0362724 (at node 22)
Accepted packet rate average = 0.0271259
	minimum = 0.0243634 (at node 0)
	maximum = 0.0362724 (at node 22)
Injected flit rate average = 0.0678321
	minimum = 0.032469 (at node 0)
	maximum = 0.117515 (at node 22)
Accepted flit rate average= 0.0678321
	minimum = 0.0362568 (at node 16)
	maximum = 0.0907511 (at node 7)
Injected packet length average = 2.50064
Accepted packet length average = 2.50064
Total in-flight flits = 0 (0 measured)
====== Overall Traffic Statistics ======
====== Traffic class 0 ======
Packet latency average = 17.5938 (1 samples)
	minimum = 6 (1 samples)
	maximum = 446 (1 samples)
Network latency average = 13.6061 (1 samples)
	minimum = 6 (1 samples)
	maximum = 258 (1 samples)
Flit latency average = 11.4222 (1 samples)
	minimum = 6 (1 samples)
	maximum = 257 (1 samples)
Fragmentation average = 0.00648065 (1 samples)
	minimum = 0 (1 samples)
	maximum = 126 (1 samples)
Injected packet rate average = 0.0271259 (1 samples)
	minimum = 0.0243634 (1 samples)
	maximum = 0.0362724 (1 samples)
Accepted packet rate average = 0.0271259 (1 samples)
	minimum = 0.0243634 (1 samples)
	maximum = 0.0362724 (1 samples)
Injected flit rate average = 0.0678321 (1 samples)
	minimum = 0.032469 (1 samples)
	maximum = 0.117515 (1 samples)
Accepted flit rate average = 0.0678321 (1 samples)
	minimum = 0.0362568 (1 samples)
	maximum = 0.0907511 (1 samples)
Injected packet size average = 2.50064 (1 samples)
Accepted packet size average = 2.50064 (1 samples)
Hops average = 1 (1 samples)
----------------------------END-of-Interconnect-DETAILS-------------------------


gpgpu_simulation_time = 0 days, 0 hrs, 3 min, 14 sec (194 sec)
gpgpu_simulation_rate = 378980 (inst/sec)
gpgpu_simulation_rate = 661 (cycle/sec)
194.274719 s
Copying data from device to host...0.000793 s
Verifying results...TEST FAILED, cpu = 494979.375, gpu = 721031.875

